unit frmMonitorUnit;

{#BACKUP VIEWER1.ICO}
{#BACKUP FacesRed.bmp}
{#BACKUP FacesYellow.bmp}
{#BACKUP FacesGreen.bmp}

interface

{
  1.0.2.0 Fixed bug that caused ModelMonitor to work improperly when the
    decimal separator was not a period in the local language settings.
  1.1.0.0 Added support for MODFLOW-LGR.
  1.2.0.0 Added support for MODFLOW-NWT. Converted to compiling with Delphi XE.
  1.3.0.0 NaN is now flagged as an error.
  1.4.0.0 If the name file or the program does not exist, attempting to
    start the program will be flagged as an error.
}

uses
  Types, Windows, Messages, SysUtils, Variants, Classes, Graphics, Controls,
  Forms, Dialogs, StdCtrls, ExtCtrls, JvExExtCtrls, JvImage, ImgList,
  JvImageList, TeEngine, Series, TeeProcs, Chart, ComCtrls, Buttons,
  JvToolEdit, AppEvnts, RealListUnit, JvHtControls, JvPageList,
  JvExControls, JvExStdCtrls, JvExMask, Mask, JvExComCtrls,
  JvComCtrls, JvComponentBase, JvCreateProcess, ErrorMessages;

type
  TStatusChange = (scOK, scWarning, scError, scNone);

  TStringFileStream = class(TFileStream)
  private
    FBuffer: array[0..1000] of AnsiChar;
    TempLine: AnsiString;
    FEOF: boolean;
    function GetEOF: boolean;
  public
    function ReadLn: AnsiString;
    property EOF: boolean read GetEOF;
  end;

  TOnStatusChanged = procedure(Sender: TObject; NewStatus: TStatusChange) of object;

  TListFileHandler = class(TObject)
  private
    FFileStream: TStringFileStream;
    FErrorMessages: TRichEdit;
    FBudgetChart: TChart;
    FserCumulative: TLineSeries;
    FserTimeStep: TLineSeries;
    FPageControl: TJvPageList;
    FListingTabSheet: TjvStandardPage;
    FResultsTabSheet: TjvStandardPage;
    FLabel: TLabel;
    FOnStatusChanged: TOnStatusChanged;
    FPercentRate: TRealList;
    FPercentCumulative: TRealList;
    FStartPlotTime: TDateTime;
    FLineCount: Integer;
    FErrorPositions: TIntegerDynArray;
    FWarningPositions: TIntegerDynArray;
    FListingFile: string;
    FStartTime: TDateTime;
    FShouldAbort: Boolean;
    FTree: TTreeView;
    FParentNode: TTreeNode;
    FListingNode: TTreeNode;
    FResultsNode: TTreeNode;
    FVolBudget: Boolean;
    procedure CreateNewTabSheet(out ATabSheet: TjvStandardPage;
      NewCaption: string; out NewNode: TTreeNode);
    procedure CreateLineSeries(AColor: TColor; ATitle: string;
      var ASeries: TLineSeries);
    procedure FindStart(PositionInLine: integer; out SelStart: integer);
    procedure GetColor(StatusChangeIndicator: TStatusChange; Value: Double;
      var AColor: TColor);
    procedure StorePercentDiscrepancy(ALine: string);
    function PlotPercentDiscrepancy : boolean;
    procedure IndentifyProblem(ALine: string; var IsProblem: Boolean;
      StatusChangeIndicator: TStatusChange; var Positions: TIntegerDynArray;
      KeyTerms: TAnsiStringList);
    procedure HandleListFileLine(ALine: string);
    procedure HandleProblem(IsError: Boolean; AColor: TColor;
      Positions: TIntegerDynArray; EV: TAnsiStringList);
    function GetPageStatus(APage: TjvStandardPage): TStatusChange;
    procedure SetPageStatus(APage: TjvStandardPage;
      const Value: TStatusChange);
    property PageStatus[APage: TjvStandardPage]: TStatusChange
      read GetPageStatus write SetPageStatus;
    function GetConnectedNode(APage: TJvStandardPage): TTreeNode;
  public
    property OnStatusChanged: TOnStatusChanged read FOnStatusChanged
      write FOnStatusChanged;
    constructor Create(AFileName: string; APageControl: TJvPageList;
      ATree: TTreeView; ModelCaption: string; CreateSubTree: boolean);
    Destructor Destroy; override;
    procedure HandleListingFile;
    procedure ReadListingFileLines;
    procedure Abort;
    function Done: boolean;
  end;

  TfrmMonitor = class(TForm)
    jilBigFaces: TJvImageList;
    timerReadOutput: TTimer;
    pnlLeft: TPanel;
    jimageStatus: TJvImage;
    imTabFaces: TImageList;
    AppEvents: TApplicationEvents;
    pnlMain: TPanel;
    pnlBottom: TPanel;
    btnRun: TBitBtn;
    timerStartFromCommandParameters: TTimer;
    lblModelDone: TLabel;
    jvplMain: TJvPageList;
    tabConfiguration: TJvStandardPage;
    lblModelName: TLabel;
    jvfeModelName: TJvFilenameEdit;
    lblNameFile: TLabel;
    jvfeNameFile: TJvFilenameEdit;
    tabMonitor: TJvStandardPage;
    lblMonitor: TLabel;
    tabAbout: TJvStandardPage;
    ImageLogo: TImage;
    reReference: TRichEdit;
    JvHTLabel2: TJvHTLabel;
    lblGoPhast: TLabel;
    lblDeveloperName: TLabel;
    JvHTLabel1: TJvHTLabel;
    lblVersion: TLabel;
    treeNavigation: TJvTreeView;
    jvcpRunModel: TJvCreateProcess;
    btnStopModel: TBitBtn;
    reMonitor: TRichEdit;
    procedure btnRunClick(Sender: TObject);
    procedure timerReadOutputTimer(Sender: TObject);
    procedure FormCreate(Sender: TObject);
    procedure jvfeModelNameChange(Sender: TObject);
    procedure FormDestroy(Sender: TObject);
    procedure AppEventsIdle(Sender: TObject; var Done: Boolean);
    procedure FormCloseQuery(Sender: TObject; var CanClose: Boolean);
    procedure FormShow(Sender: TObject);
    procedure timerStartFromCommandParametersTimer(Sender: TObject);
    procedure SetPageStatus(APage: TJvStandardPage; Status: TStatusChange);
    procedure treeNavigationClick(Sender: TObject);
    procedure jvcpRunModelRead(Sender: TObject; const S: string;
      const StartsOnNewLine: Boolean);
    procedure jvcpRunModelTerminate(Sender: TObject; ExitCode: Cardinal);
    procedure btnStopModelClick(Sender: TObject);
  private
    FListFilesNames: TStringList;
    FListFileHandlers: TList;
    FErrorPositions: TIntegerDynArray;
    FWarningPositions: TIntegerDynArray;
//    FMonitorTextReader: TStringFileStream;
    FLineCount: Integer;
    FShouldAbort: Boolean;
    FModelFinished: Boolean;
    FStartTime: Extended;
    FReading1: Boolean;
    FReading2: Boolean;
    {$IFDEF MakeBatchFile}
//    FOutFile: string;
    {$ENDIF}
    FAlreadyStarted: Boolean;
    FPercentRate: TRealList;
    FPercentCumulative: TRealList;
    FActivated: Boolean;
    FStartPlotTime: TDateTime;
    FDone: Boolean;
    FPriorSolving: Boolean;
    FPriorLine: string;
    procedure GetListFile(AFileName: string; ListFiles: TStringList);
    procedure FindStart(RichEdit: TRichEdit; PositionInLine: integer;
      out SelStart: integer);
    procedure CreateFileReaders;
//    function WinExecAndWait32(FileName: string; Visibility: Integer): Longword;
    procedure HandleMonitorFileLine(ALine: string);
    procedure ReadCommandLine;
    function ListFileReadersFinished: boolean;

    { Private declarations }
  public
    procedure StatusChanged(Sender: TObject; NewStatus: TStatusChange);
    { Public declarations }
  end;

var
  frmMonitor: TfrmMonitor;

implementation

uses {ShellApi,} forceforeground, JvVersionInfo, contnrs;

resourcestring
  StrPERCENTDISCREPANCY = 'PERCENT DISCREPANCY =';
  StrMFOuttxt = 'MF_Out.txt';
  StrNormalTermination = 'Normal termination of simulation';
  StrFailureToConverge = 'Failure to converge';
  StrStopMonitoringMode = 'Stop monitoring model';
  StrStartModel = 'Re-Start model';
  StrFIRSTENTRYINNAME = 'FIRST ENTRY IN NAME FILE MUST BE "LIST".';
  StrFAILEDTOMEETSOLVE = 'FAILED TO MEET SOLVER CONVERGENCE CRITERIA';
  StrNoListFileInName = 'No list file in name file.';

{$R *.dfm}

// from http://www.swissdelphicenter.ch/torry/showcode.php?id=93                                 
//function TfrmMonitor.WinExecAndWait32(FileName: string; Visibility: Integer): Longword;
//var { by Pat Ritchey }
//  zAppName: array[0..512] of Char;
//  zCurDir: array[0..255] of Char;
//  WorkDir: string;
//  StartupInfo: TStartupInfo;
//  ProcessInfo: TProcessInformation;
//begin
//  StrPCopy(zAppName, FileName);
//  GetDir(0, WorkDir);
//  StrPCopy(zCurDir, WorkDir);
//  FillChar(StartupInfo, SizeOf(StartupInfo), #0);
//  StartupInfo.cb          := SizeOf(StartupInfo);
//  StartupInfo.dwFlags     := STARTF_USESHOWWINDOW;
//  StartupInfo.wShowWindow := Visibility;
//  if not CreateProcess(nil,
//    zAppName, // pointer to command line string
//    nil, // pointer to process security attributes
//    nil, // pointer to thread security attributes
//    False, // handle inheritance flag
//    CREATE_NEW_CONSOLE or // creation flags
//    NORMAL_PRIORITY_CLASS,
//    nil, //pointer to new environment block
//    nil, // pointer to current directory name
//    StartupInfo, // pointer to STARTUPINFO
//    ProcessInfo) // pointer to PROCESS_INF
//    then Result := WAIT_FAILED
//  else
//  begin
//    repeat
//      if FShouldAbort then
//      begin
//        TerminateProcess(ProcessInfo.hProcess,0);
//        break;
//      end;
//      Application.ProcessMessages;
//      Sleep(50);
//    until WaitForSingleObject(ProcessInfo.hProcess, 100) <> WAIT_TIMEOUT;
//    if not GetExitCodeProcess(ProcessInfo.hProcess, Result) then
//    begin
//      RaiseLastOSError;
//    end;
//    CloseHandle(ProcessInfo.hProcess);
//    CloseHandle(ProcessInfo.hThread);
//  end;
//end; { WinExecAndWait32 }


procedure TfrmMonitor.AppEventsIdle(Sender: TObject;
  var Done: Boolean);
var
//  ALine: AnsiString;
  FileReaderIndex: Integer;
  ListHandler: TListFileHandler;
begin
  CreateFileReaders;
  FReading1 := True;
  try
    for FileReaderIndex := 0 to FListFileHandlers.Count - 1 do
    begin
      ListHandler := FListFileHandlers[FileReaderIndex];
      ListHandler.HandleListingFile;
    end;

{    while (FOutFile <> '') and FileExists(FOutFile)
      and (FMonitorTextReader <> nil)
      and not FMonitorTextReader.EOF  do
    begin
      if (FOutFile = '') then
      begin
        Exit;
      end;
      ALine := FMonitorTextReader.ReadLn;
      if (ALine <> '') or not FMonitorTextReader.EOF then
      begin
        HandleMonitorFileLine(string(ALine));
      end;
      Application.ProcessMessages;
      FStartTime := Now;
    end;
    if FModelFinished then
    begin
        FOutFile := '';
        timerReadOutput.Enabled := False;
        FreeAndNil(FMonitorTextReader);
        Exit;
    end; }
    Application.ProcessMessages;
  finally
    FReading1 := False;
  end;
end;

function TfrmMonitor.ListFileReadersFinished: boolean;
var
  Index: Integer;
  FileHandler: TListFileHandler;
begin
  result := True;
  for Index := 0 to FListFileHandlers.Count - 1 do
  begin
    FileHandler := FListFileHandlers[Index];
    result := FileHandler.Done;
    if not result then
    begin
      Exit;
    end;
  end;
end;

procedure TfrmMonitor.btnStopModelClick(Sender: TObject);
begin
  if jvcpRunModel.State <> psReady then
  begin
    jvcpRunModel.Terminate;
    timerReadOutput.Enabled := False;
  end;
end;

procedure TfrmMonitor.btnRunClick(Sender: TObject);
var
  CommandLine: string;
  FileDir: string;
  FileName: string;
//  NormalTermination: Boolean;
  Index: Integer;
  {$IFDEF MakeBatchFile}
//  BatFile: TStringList;
//  ProcessExitCode: Cardinal;
  ListHandler: TListFileHandler;
//  Dummy: Boolean;
  {$ENDIF}
begin
  if timerReadOutput.Enabled then
  begin
    btnRun.Caption := StrStartModel;
    FShouldAbort := True;
    timerReadOutput.Enabled := False;
    btnRun.Glyph := jilBigFaces.Items[3].Bitmap;
    for Index := 0 to FListFileHandlers.Count - 1 do
    begin
      ListHandler := FListFileHandlers[Index];
      ListHandler.Abort;
    end;
  end
  else
  begin
    if not FileExists(jvfeModelName.FileName)
      or not FileExists(jvfeNameFile.FileName) then
    begin
      Beep;
      if not FileExists(jvfeModelName.FileName) then
      begin
        if Trim(jvfeModelName.FileName) = '' then
        begin
          reMonitor.Lines.Add('No model has been specified');
        end
        else
        begin
          reMonitor.Lines.Add(jvfeModelName.FileName + ' does not exist.')
        end;
      end;
      if not FileExists(jvfeNameFile.FileName) then
      begin
        if Trim(jvfeNameFile.FileName) = '' then
        begin
          reMonitor.Lines.Add('No name file has been specified');
        end
        else
        begin
          reMonitor.Lines.Add(jvfeNameFile.FileName + ' does not exist.')
        end;
      end;
      SetPageStatus(tabMonitor, scError);
      StatusChanged(nil, scError);
      Exit;
    end;

    FActivated := False;
    FModelFinished := False;
    FDone := False;
    btnRun.Glyph := jilBigFaces.Items[4].Bitmap;

    CommandLine := jvfeModelName.FileName;
    if Pos(' ', CommandLine) > 0 then
    begin
      CommandLine := '"' + CommandLine + '"';
    end;
    FileDir := ExtractFileDir(jvfeNameFile.FileName);
    FileName := ExtractFileName(jvfeNameFile.FileName);
    SetCurrentDir(FileDir);
    FileDir := IncludeTrailingPathDelimiter(FileDir);
    CommandLine := CommandLine + ' ' + FileName;
    {$IFDEF MakeBatchFile}
//    FOutFile := FileDir + StrMFOuttxt;
//    if FileExists(FOutFile) then
//    begin
//      DeleteFile(FOutFile);
//    end;
//    if LowerCase(ExtractFileExt(jvfeModelName.FileName)) <> '.bat' then
//    begin
//      CommandLine := CommandLine + ' >' + StrMFOuttxt;
//      BatFile := TStringList.Create;
//      try
//        BatFile.Add(CommandLine);
//        CommandLine := FileDir + 'MF_Run.bat';
//        BatFile.SaveToFile(CommandLine);
//      finally
//        BatFile.Free;
//      end;
//    end;
//    If Pos(' ', CommandLine) > 0 then
//    begin
//      CommandLine := '"' + CommandLine + '"';
//    end;
    {$ENDIF}
    FListFilesNames.Clear;
    FListFileHandlers.Clear;
    GetListFile(jvfeNameFile.FileName, FListFilesNames);
    if FListFilesNames.Count = 0 then
    begin
      Beep;
      MessageDlg(StrNoListFileInName, mtError, [mbOK], 0);
      Exit;
    end;

    for Index := 0 to FListFilesNames.Count - 1 do
    begin
      if FileExists(FListFilesNames[Index]) then
      begin
        DeleteFile(FListFilesNames[Index]);
      end;
    end;

    btnRun.Caption := StrStopMonitoringMode;
    jimageStatus.Tag := 0;
    jimageStatus.Picture.Assign(jilBigFaces.Items[0].Bitmap);

    SetPageStatus(tabMonitor, scOK);
    FLineCount := 0;
    FShouldAbort := False;

    reMonitor.Lines.Clear;

    lblMonitor.Caption := 'Screen output';
    lblMonitor.Font.Color := clBlack;
    lblMonitor.Font.Style := [];

    treeNavigation.AutoExpand := True;
    timerReadOutput.Enabled := True;
    jvcpRunModel.CommandLine := CommandLine;
    FStartTime := Now;
    btnStopModel.Enabled := True;
    jvcpRunModel.Run;
{    ProcessExitCode := WinExecAndWait32(CommandLine, SW_SHOW);
    if ProcessExitCode <> 0 then
    begin
      AppEventsIdle(Sender, Dummy);
      StatusChanged(Sender, scError);
      if ProcessExitCode = WAIT_FAILED then
      begin
        raise Exception.Create('Error waiting for program to start.');
      end
      else
      begin
        raise Exception.Create('The program terminated with an error.');
      end;
    end;

{
    lblModelDone.Visible := True;

    AppEventsIdle(Sender, Dummy);

    while not FShouldAbort and (FMonitorTextReader <> nil) and
      ((FMonitorTextReader.Position < FMonitorTextReader.Size-1)
      or not FMonitorTextReader.EOF) and not ListFileReadersFinished do
    begin
      Application.ProcessMessages;
      Sleep(20);
    end;

    FDone := True;

    NormalTermination := False;
    for Index := 0 to reMonitor.Lines.Count - 1 do
    begin
      if Pos(StrNormalTermination, reMonitor.Lines[Index]) > 0 then
      begin
        NormalTermination := True;
        break;
      end;
    end;
    
    if not FShouldAbort and not NormalTermination then
    begin
      lblMonitor.Caption := 'Screen output' + sLineBreak
        + 'Program failed to terminate normally';
      lblMonitor.Font.Color := clRed;
      lblMonitor.Font.Style := [fsBold];
      SetPageStatus(tabMonitor, scError);
      StatusChanged(nil, scError);
    end;

    lblModelDone.Visible := False;

    btnRun.Caption := StrStartModel;
    btnRun.Glyph := jilBigFaces.Items[3].Bitmap;
    FStartTime := Now;
    FModelFinished := True;
    }
  end;
end;

procedure TfrmMonitor.FormCloseQuery(Sender: TObject; var CanClose: Boolean);
begin
  timerReadOutput.Enabled := False;
  AppEvents.OnIdle := nil;
  while FReading1 or FReading2 do
  begin
    // wait
  end;
//  FreeAndNil(FMonitorTextReader);
end;

type
  TCommandLineState = (clsUnknown, clsModelName, clsNameFile);

procedure TfrmMonitor.FormCreate(Sender: TObject);
var
  VerInfo: TJvVersionInfo;
begin
  // The ItemHeight property seems to get lost all the time.
  treeNavigation.ItemHeight := 28;

  FormatSettings.DecimalSeparator := '.';
  FormatSettings.ThousandSeparator := ',';

  FListFilesNames := TStringList.Create;
  FListFileHandlers := TObjectList.Create;
  VerInfo := TJvVersionInfo.Create(Application.ExeName);
  try
    lblVersion.Caption := 'Version: ' + VerInfo.FileVersion;
  finally
    VerInfo.Free;
  end;

  treeNavigation.Items[0].Data := tabConfiguration;
  treeNavigation.Items[1].Data := tabMonitor;
  treeNavigation.Items[2].Data := tabAbout;

  SetLength(FErrorPositions, ErrorValues.Count);
  SetLength(FWarningPositions, WarningValues.Count);

  jvfeModelNameChange(jvfeModelName);
  jvfeModelNameChange(jvfeNameFile);
  jvplMain.ActivePageIndex := 0;
  FPercentRate := TRealList.Create;
  FPercentCumulative := TRealList.Create;
  FStartPlotTime  := 0;

  reReference.WordWrap := True;
end;

procedure TfrmMonitor.FormDestroy(Sender: TObject);
begin
  FPercentCumulative.Free;
  FPercentRate.Free;
//  FreeAndNil(FMonitorTextReader);
  FListFilesNames.Free;
  FListFileHandlers.Free;
end;

procedure TfrmMonitor.FormShow(Sender: TObject);
begin
  timerStartFromCommandParameters.Enabled := True;
end;

procedure TfrmMonitor.jvcpRunModelRead(Sender: TObject; const S: string;
  const StartsOnNewLine: Boolean);
begin
  if FPriorSolving and (S = '') then
  begin
    Exit
  end;
  HandleMonitorFileLine(S);
  FPriorSolving := Pos('Solving', S) > 0;
end;

procedure TfrmMonitor.jvcpRunModelTerminate(Sender: TObject;
  ExitCode: Cardinal);
var
  Dummy: Boolean;
  NormalTermination: Boolean;
  Index: Integer;
begin
  btnStopModel.Enabled := False;
  lblModelDone.Visible := True;

  AppEventsIdle(Sender, Dummy);

  while not FShouldAbort and {(FMonitorTextReader <> nil) and
    ((FMonitorTextReader.Position < FMonitorTextReader.Size-1)
    or not FMonitorTextReader.EOF) and} not ListFileReadersFinished do
  begin
    Application.ProcessMessages;
    Sleep(20);
  end;

  FDone := True;

  NormalTermination := False;
  for Index := 0 to reMonitor.Lines.Count - 1 do
  begin
    if Pos(StrNormalTermination, reMonitor.Lines[Index]) > 0 then
    begin
      NormalTermination := True;
      break;
    end;
  end;

  if not FShouldAbort and not NormalTermination then
  begin
    lblMonitor.Caption := 'Screen output' + sLineBreak
      + 'Program failed to terminate normally';
    lblMonitor.Font.Color := clRed;
    lblMonitor.Font.Style := [fsBold];
    SetPageStatus(tabMonitor, scError);
    StatusChanged(nil, scError);
  end;

  lblModelDone.Visible := False;

  btnRun.Caption := StrStartModel;
  btnRun.Glyph := jilBigFaces.Items[3].Bitmap;
  FStartTime := Now;
  FModelFinished := True;
end;

procedure TfrmMonitor.jvfeModelNameChange(Sender: TObject);
var
  FileEdit: TJvFilenameEdit;
begin
  FileEdit := Sender as TJvFilenameEdit;
  if FileExists(FileEdit.FileName) then
  begin
    FileEdit.Color := clWindow;
  end
  else
  begin
    FileEdit.Color := clRed;
  end;
end;

procedure TfrmMonitor.FindStart(RichEdit: TRichEdit; PositionInLine: integer;
  out SelStart: integer);
var
  LineIndex: Integer;
begin
  SelStart := -1;
  for LineIndex := 0 to RichEdit.Lines.Count - 2 do
  begin
    SelStart := SelStart + Length(RichEdit.Lines[LineIndex]) + 1;
  end;
  SelStart := SelStart + PositionInLine;
end;

procedure TfrmMonitor.GetListFile(AFileName: string; ListFiles: TStringList);
var
  ALine: string;
  LineList: TStringList;
  NameFile: TStringList;
  Index: Integer;
  NameFileLine: string;
  GridCountLine: string;
  GridCount: Integer;
  GridIndex: Integer;
  GridLineIndex: Integer;
  ListFile: string; 
begin
  ListFile := '';
  NameFile := TStringList.Create;
  try
    NameFile.LoadFromFile(AFileName);
    for Index := 0 to NameFile.Count - 1 do
    begin
      ALine := UpperCase(Trim(NameFile[Index]));
      if (Length(ALine) = 0) or (ALine[1] = '#') then
      begin
        Continue
      end;
      if (Pos('LGR', ALine) > 0) and (Index < NameFile.Count - 2) then
      begin
        LineList := TStringList.Create;
        try
          LineList.Delimiter := ' ';
          LineList.DelimitedText := Trim(ALine);
          if LineList[0] = 'LGR' then
          begin
            GridCountLine := NameFile[Index+1];
            Assert(Length(GridCountLine) > 0);
            LineList.DelimitedText := Trim(GridCountLine);
            GridCount := StrToInt(LineList[0]);

            NameFileLine := NameFile[Index+2];
            Assert(Length(NameFileLine) > 0);
            LineList.DelimitedText := Trim(NameFileLine);
            GetListFile(LineList[0], ListFiles);

            for GridIndex := 1 to GridCount - 1 do
            begin
              GridLineIndex := (GridIndex-1)*10 + 3 + Index + 2;
              Assert(GridLineIndex < NameFile.Count);
              NameFileLine := NameFile[GridLineIndex];
              Assert(Length(NameFileLine) > 0);
              LineList.DelimitedText := Trim(NameFileLine);
              GetListFile(LineList[0], ListFiles);
            end;
            Exit;
          end;
        finally
          LineList.Free;
        end;
      end;
      if Pos('LIST', ALine) > 0 then
      begin
        LineList := TStringList.Create;
        try
          LineList.Delimiter := ' ';
          LineList.DelimitedText := Trim(ALine);
          if LineList.Count < 3 then
          begin
            Continue;
          end;
          if LineList[0] <> 'LIST' then
          begin
            Continue;
          end;
          ListFile := LineList[2];
          ListFiles.Add(ListFile);
          break;
        finally
          LineList.Free;
        end;
      end;
    end;
  finally
    NameFile.Free;
  end;
end;

procedure TfrmMonitor.CreateFileReaders;
var
  FileHandlerIndex: Integer;
  AListingFile: string;
  FileHandler: TListFileHandler;
  ModelCaption: string;
  ANode: TTreeNode;
begin
//  if FOutFile = '' then
//  begin
//    FreeAndNil(FMonitorTextReader);
//  end;
//  if (FMonitorTextReader = nil) and FileExists(FOutFile) then
//  begin
//    FMonitorTextReader := TStringFileStream.Create(FOutFile,
//      fmOpenRead or fmShareDenyNone);
//  end;

  if FListFileHandlers.Count = FListFilesNames.Count then
  begin
    treeNavigation.AutoExpand := False;
    Exit;
  end;

  ANode := treeNavigation.Items[treeNavigation.Items.Count-1];
  treeNavigation.Items.Delete(ANode);

  for FileHandlerIndex := FListFileHandlers.Count
    to FListFilesNames.Count - 1 do
  begin
    AListingFile := FListFilesNames[FileHandlerIndex];
    if FileExists(AListingFile) then
    begin
      if FListFilesNames.Count = 1 then
      begin
        ModelCaption := '';
      end
      else
      begin
        if FileHandlerIndex = 0 then
        begin
          ModelCaption := 'Parent ';
        end
        else
        begin
          ModelCaption := 'Child ' + IntToStr(FileHandlerIndex) + ' ';
        end;
      end;
      FileHandler := TListFileHandler.Create(AListingFile, jvplMain,
        treeNavigation, ModelCaption, FListFilesNames.Count > 1);
      FileHandler.OnStatusChanged := StatusChanged;
      FListFileHandlers.Add(FileHandler);
    end
    else
    begin
      break;
    end;
  end;
  ANode := treeNavigation.Items.Add(nil, 'About');
  ANode.Data := tabAbout;
  treeNavigation.SetFocus;
end;

procedure TfrmMonitor.HandleMonitorFileLine(ALine: string);
var
  Position: integer;
  SelStart: Integer;
  ErrorIndex: Integer;
  AnErrorMessage: string;
  procedure SetTextColor(const AText: string;
    AStatus: TStatusChange);
  var
    AColor: TColor;
    SelStart: integer;
  begin
    AColor := clBlack;
    case AStatus of
      scWarning:
        begin
          AColor := clRed;
        end;
      scError:
        begin
          AColor := clYellow;
        end;
      else Assert(False);
    end;
    FindStart(reMonitor, Position, SelStart);
    reMonitor.SelStart := SelStart;
    reMonitor.SelLength := Length(AText);
    reMonitor.SelAttributes.Color := AColor;
    reMonitor.SelLength := 0;
    StatusChanged(nil, scError);
    SetPageStatus(tabMonitor, scError);

    // For TJvRichEdit;
//    FindStart(reMonitor, Position, SelStart);
//    reMonitor.SetSelection(SelStart,
//      SelStart + Length(AText), True);
//    reMonitor.SelAttributes.BackColor := AColor;
//    reMonitor.SelAttributes.Color := clWhite;
//    reMonitor.SetSelection(SelStart, SelStart, True);
//    StatusChanged(nil, scError);
//    SetPageStatus(tabMonitor, scError);
  end;
begin
//  if (FOutFile = '') then
//  begin
//    Exit;
//  end;
  if (FPriorLine <> '') and (Pos(FPriorLine, ALine) > 0) then
  begin
    reMonitor.Lines[reMonitor.Lines.Count-1] := ALine;
  end
  else
  begin
    reMonitor.Lines.Add(ALine);
  end;
  FPriorLine := ALine;
  if Trim(ALine) = '' then
  begin
    Exit;
  end;
  Position := Pos(StrNormalTermination, ALine);
  if Position > 0 then
  begin
    FindStart(reMonitor, Position, SelStart);
    reMonitor.SelStart := SelStart;
    reMonitor.SelLength := Length(StrNormalTermination);
//    reMonitor.SetSelection(SelStart,
//      SelStart + Length(StrNormalTermination), True);
    reMonitor.SelAttributes.Color := clGreen;
//    reMonitor.SelAttributes.Color := clWhite;
    reMonitor.SelLength := 0;
//    reMonitor.SetSelection(SelStart, SelStart, True);
  end
  else
  begin
    Position := Pos(StrFIRSTENTRYINNAME, ALine);
    if Position > 0 then
    begin
      SetTextColor(StrFIRSTENTRYINNAME, scError);
//      FindStart(reMonitor, Position, SelStart);
//      reMonitor.SetSelection(SelStart,
//        SelStart + Length(StrFIRSTENTRYINNAME), True);
//      reMonitor.SelAttributes.BackColor := clRed;
//      reMonitor.SelAttributes.Color := clWhite;
//      reMonitor.SetSelection(SelStart, SelStart, True);
//      StatusChanged(nil, scError);
//      SetPageStatus(tabMonitor, scError);
    end;

    Position := Pos(StrFailureToConverge, ALine);
    if Position > 0 then
    begin
      SetTextColor(StrFailureToConverge, scError);
//      FindStart(reMonitor, Position, SelStart);
//      reMonitor.SetSelection(SelStart,
//        SelStart + Length(StrFailureToConverge), True);
//      reMonitor.SelAttributes.BackColor := clRed;
//      reMonitor.SelAttributes.Color := clWhite;
//      reMonitor.SetSelection(SelStart, SelStart, True);
//      StatusChanged(nil, scError);
//      SetPageStatus(tabMonitor, scError);
    end;

    Position := Pos(StrFAILEDTOMEETSOLVE, ALine);
    if Position > 0 then
    begin
      SetTextColor(StrFAILEDTOMEETSOLVE, scError);
//      FindStart(reMonitor, Position, SelStart);
//      reMonitor.SetSelection(SelStart,
//        SelStart + Length(StrFAILEDTOMEETSOLVE), True);
//      reMonitor.SelAttributes.BackColor := clRed;
//      reMonitor.SelAttributes.Color := clWhite;
//      reMonitor.SetSelection(SelStart, SelStart, True);
//      StatusChanged(nil, scError);
//      SetPageStatus(tabMonitor, scError);
    end;

    for ErrorIndex := 0 to ErrorValues.Count - 1 do
    begin
      AnErrorMessage := string(ErrorValues[ErrorIndex]);
      Position := Pos(AnErrorMessage, ALine);
      if Position > 0 then
      begin
        SetTextColor(AnErrorMessage, scError);
//        FindStart(reMonitor, Position, SelStart);
//        reMonitor.SetSelection(SelStart,
//          SelStart + Length(AnErrorMessage), True);
//        reMonitor.SelAttributes.BackColor := clRed;
//        reMonitor.SelAttributes.Color := clWhite;
//        reMonitor.SetSelection(SelStart, SelStart, True);
//        StatusChanged(nil, scError);
//        SetPageStatus(tabMonitor, scError);
      end;
    end;
  end;
end;

procedure TfrmMonitor.ReadCommandLine;
var
  State: TCommandLineState;
  Index: Integer;
  Param: string;
  LowerCaseParam: string;
const
  ModelNameOption = '-m';
  NameFileOption = '-n';
begin
  if FAlreadyStarted then
  begin
    Exit;
  end;
  FAlreadyStarted := True;
  if ParamCount > 0 then
  begin
    State := clsUnknown;
    for Index := 0 to ParamCount - 1 do
    begin
      Param := ParamStr(Index + 1);
      LowerCaseParam := LowerCase(Param);
      if LowerCaseParam = ModelNameOption then
      begin
        State := clsModelName;
        Continue;
      end
      else if LowerCaseParam = NameFileOption then
      begin
        State := clsNameFile;
        Continue;
      end;
      case State of
        clsUnknown:
          begin
            if FileExists(Param) then
            begin
              jvfeModelName.FileName := Param;
              State := clsNameFile;
            end;
          end;
        clsModelName:
          begin
            if FileExists(Param) then