inherited frmDisplayData: TfrmDisplayData
  HelpType = htKeyword
  HelpKeyword = 'Data_Visualization_Dialog_Box'
  Caption = 'Data Visualization'
  ClientHeight = 542
  ClientWidth = 781
  ExplicitTop = -144
  ExplicitWidth = 797
  ExplicitHeight = 580
  PixelsPerInch = 96
  TextHeight = 18
  object splSplit: TSplitter
    Left = 201
    Top = 0
    Width = 5
    Height = 501
    ExplicitLeft = 178
    ExplicitHeight = 420
  end
  object pglstMain: TJvPageList
    Left = 206
    Top = 0
    Width = 575
    Height = 501
    ActivePage = jvspColorGrid
    PropagateEnable = False
    Align = alClient
    OnChange = pglstMainChange
    object jvspModpathPathline: TJvStandardPage
      Left = 0
      Top = 0
      Width = 575
      Height = 501
      HelpType = htKeyword
      HelpKeyword = 'MODPATH_Display_Dialog_Box'
      Caption = 'jvspModpathPathline'
      inline frameModpathDisplay: TframeModpathDisplay
        Left = 0
        Top = 0
        Width = 575
        Height = 501
        Align = alClient
        TabOrder = 0
        ExplicitWidth = 575
        ExplicitHeight = 501
        inherited pcMain: TPageControl
          Width = 575
          Height = 501
          ExplicitWidth = 575
          ExplicitHeight = 501
          inherited tabBasic: TTabSheet
            ExplicitLeft = 4
            ExplicitTop = 29
            ExplicitWidth = 567
            ExplicitHeight = 468
            inherited lblModpathFile: TLabel
              Width = 159
              Height = 18
              ExplicitWidth = 159
              ExplicitHeight = 18
            end
            inherited lblColorScheme: TLabel
              Width = 97
              Height = 18
              ExplicitWidth = 97
              ExplicitHeight = 18
            end
            inherited pbColorScheme: TPaintBox
              Width = 548
              ExplicitWidth = 548
            end
            inherited lblColorAdjustment: TLabel
              Width = 117
              Height = 18
              ExplicitWidth = 117
              ExplicitHeight = 18
            end
            inherited lblCycles: TLabel
              Left = 455
              Width = 47
              Height = 18
              ExplicitLeft = 455
              ExplicitWidth = 47
              ExplicitHeight = 18
            end
            inherited lblMaxTime: TLabel
              Width = 78
              Height = 18
              ExplicitWidth = 78
              ExplicitHeight = 18
            end
            inherited lblModelSelection: TLabel
              Width = 109
              Height = 18
              ExplicitWidth = 109
              ExplicitHeight = 18
            end
            inherited fedModpathFile: TJvFilenameEdit
              Width = 548
              Height = 26
              ExplicitWidth = 548
              ExplicitHeight = 26
            end
            inherited comboColorScheme: TComboBox
              Width = 548
              Height = 26
              ExplicitWidth = 548
              ExplicitHeight = 26
            end
            inherited seColorExponent: TJvSpinEdit
              Height = 26
              ExplicitHeight = 26
            end
            inherited seCycles: TJvSpinEdit
              Left = 455
              Height = 26
              ExplicitLeft = 455
              ExplicitHeight = 26
            end
            inherited comboModelSelection: TComboBox
              Height = 26
              ExplicitHeight = 26
            end
          end
          inherited tabOptions: TTabSheet
            ExplicitLeft = 4
            ExplicitTop = 29
            ExplicitWidth = 457
            ExplicitHeight = 317
            inherited rgShow2D: TRadioGroup
              Width = 550
              Items.Strings = (
                'Show all'
                'Specify columns, rows, layers, times and/or groups to show'
                
                  'Specify starting columns, rows, layers, times and/or groups to s' +
                  'how'
                
                  'Specify ending columns, rows, layers, times and/or groups to sho' +
                  'w')
              ExplicitWidth = 550
            end
            inherited rdgLimits: TRbwDataGrid4
              Width = 407
              Height = 212
              ExplicitWidth = 407
              ExplicitHeight = 212
            end
          end
        end
      end
    end
    object jvspStreamLinks: TJvStandardPage
      Left = 0
      Top = 0
      Width = 575
      Height = 501
      HelpType = htKeyword
      HelpKeyword = 'Stream_Links_Pane'
      Caption = 'jvspStreamLinks'
      inline frameStreamLink: TframeStreamLink
        Left = 0
        Top = 0
        Width = 575
        Height = 501
        Align = alClient
        TabOrder = 0
        ExplicitWidth = 575
        ExplicitHeight = 501
        inherited shpStreamColor: TShape
          Left = 448
          Top = 4
          ExplicitLeft = 448
          ExplicitTop = 4
        end
        inherited shpDiversionColor: TShape
          Left = 448
          Top = 35
          ExplicitLeft = 448
          ExplicitTop = 35
        end
        inherited lblTimeToPlot: TLabel
          Top = 218
          Width = 84
          Height = 18
          ExplicitTop = 218
          ExplicitWidth = 84
          ExplicitHeight = 18
        end
        inherited shpUnconnectedColor: TShape
          Left = 448
          Top = 66
          ExplicitLeft = 448
          ExplicitTop = 66
        end
        inherited btnStreamColor: TButton
          Left = 242
          Top = 4
          ExplicitLeft = 242
          ExplicitTop = 4
        end
        inherited btnDiversionColor: TButton
          Left = 242
          Top = 35
          ExplicitLeft = 242
          ExplicitTop = 35
        end
        inherited rgItemsToPlot: TRadioGroup
          Height = 112
          ExplicitHeight = 112
        end
        inherited cbStreams: TCheckBox
          Width = 150
          ExplicitWidth = 150
        end
        inherited cbPlotDiversions: TCheckBox
          Width = 166
          ExplicitWidth = 166
        end
        inherited comboTimeToPlot: TJvComboBox
          Top = 215
          Height = 26
          ItemHeight = 18
          ExplicitTop = 215
          ExplicitHeight = 26
        end
        inherited cbPlotUnconnected: TCheckBox
          Width = 222
          ExplicitWidth = 222
        end
        inherited btnUnconnectedColor: TButton
          Left = 242
          Top = 66
          ExplicitLeft = 242
          ExplicitTop = 66
        end
      end
    end
    object jvspHeadObsResults: TJvStandardPage
      Left = 0
      Top = 0
      Width = 575
      Height = 501
      HelpType = htKeyword
      HelpKeyword = 'Head_Observation_Results'
      Caption = 'jvspHeadObsResults'
      inline frameHeadObservationResults: TframeHeadObservationResults
        Left = 0
        Top = 0
        Width = 575
        Height = 501
        Align = alClient
        TabOrder = 0
        ExplicitWidth = 575
        ExplicitHeight = 501
        inherited pgcHeadObs: TPageControl
          Width = 575
          Height = 460
          ExplicitWidth = 575
          ExplicitHeight = 460
          inherited tabControls: TTabSheet
            ExplicitLeft = 4
            ExplicitTop = 29
            ExplicitWidth = 567
            ExplicitHeight = 427
            inherited lblNegativeColor: TLabel
              Width = 190
              Height = 18
              ExplicitWidth = 190
              ExplicitHeight = 18
            end
            inherited lblColorPositive: TLabel
              Width = 185
              Height = 18
              ExplicitWidth = 185
              ExplicitHeight = 18
            end
            inherited lblMaxSymbolSize: TLabel
              Width = 206
              Height = 18
              ExplicitWidth = 206
              ExplicitHeight = 18
            end
            inherited lblHeadObsResults: TLabel
              Width = 69
              Height = 18
              ExplicitWidth = 69
              ExplicitHeight = 18
            end
            inherited flnmedHeadObsResults: TJvFilenameEdit
              Height = 26
              ExplicitHeight = 26
            end
            inherited grpbxFilter: TGroupBox
              inherited lblMaximumTime: TLabel
                Width = 101
                Height = 18
                ExplicitWidth = 101
                ExplicitHeight = 18
              end
              inherited lblMaxResidual: TLabel
                Width = 126
                Height = 18
                ExplicitWidth = 126
                ExplicitHeight = 18
              end
              inherited lblMinimumTime: TLabel
                Width = 97
                Height = 18
                ExplicitWidth = 97
                ExplicitHeight = 18
              end
              inherited lblMinResidual: TLabel
                Width = 122
                Height = 18
                ExplicitWidth = 122
                ExplicitHeight = 18
              end
              inherited framelmtMaximumTime: TframeDisplayLimit
                inherited comboBoolLimit: TComboBox
                  Height = 26
                  ExplicitHeight = 26
                end
              end
              inherited framelmtMaxResidual: TframeDisplayLimit
                inherited comboBoolLimit: TComboBox
                  Height = 26
                  ExplicitHeight = 26
                end
              end
              inherited framelmtMinimumTime: TframeDisplayLimit
                inherited comboBoolLimit: TComboBox
                  Height = 26
                  ExplicitHeight = 26
                end
              end
              inherited framelmtMinResidual: TframeDisplayLimit
                inherited comboBoolLimit: TComboBox
                  Height = 26
                  ExplicitHeight = 26
                end
              end
            end
            inherited spinSymbolSize: TJvSpinEdit
              Height = 26
              ExplicitHeight = 26
            end
          end
          inherited tabValues: TTabSheet
            ExplicitLeft = 4
            ExplicitTop = 29
            ExplicitWidth = 520
            ExplicitHeight = 309
            inherited rdgHeadObs: TRbwDataGrid4
              Height = 309
              ExplicitHeight = 309
            end
          end
        end
        inherited pnlBottom: TPanel
          Top = 460
          Width = 575
          ExplicitTop = 460
          ExplicitWidth = 575
          inherited comboModels: TComboBox
            Left = 259
            Top = 5
            Height = 26
            TabOrder = 0
            ExplicitLeft = 259
            ExplicitTop = 5
            ExplicitHeight = 26
          end
          inherited btnHightlightObjects: TButton
            Width = 246
            TabOrder = 1
            ExplicitWidth = 246
          end
        end
      end
    end
    object jvspModpathTimeSeries: TJvStandardPage
      Left = 0
      Top = 0
      Width = 575
      Height = 501
      HelpType = htKeyword
      HelpKeyword = 'MODPATH_Time_Series_Display'
      Caption = 'jvspModpathTimeSeries'
      inline frameModpathTimeSeriesDisplay: TframeModpathTimeSeriesDisplay
        Left = 0
        Top = 0
        Width = 575
        Height = 501
        Align = alClient
        TabOrder = 0
        ExplicitWidth = 575
        ExplicitHeight = 501
        inherited pcMain: TPageControl
          Width = 575
          Height = 501
          ActivePage = frameModpathTimeSeriesDisplay.tabBasic
          ExplicitWidth = 575
          ExplicitHeight = 501
          inherited tabBasic: TTabSheet
            ExplicitLeft = 4
            ExplicitTop = 29
            ExplicitWidth = 567
            ExplicitHeight = 468
            inherited lblModpathFile: TLabel
              Width = 182
              Height = 18
              ExplicitWidth = 182
              ExplicitHeight = 18
            end
            inherited lblTimeToPlot: TLabel
              Width = 80
              Height = 18
              ExplicitWidth = 80
              ExplicitHeight = 18
            end
            inherited lblColorScheme: TLabel
              Width = 97
              Height = 18
              ExplicitWidth = 97
              ExplicitHeight = 18
            end
            inherited pbColorScheme: TPaintBox
              Width = 545
              ExplicitWidth = 545
            end
            inherited lblColorAdjustment: TLabel
              Width = 117
              Height = 18
              ExplicitWidth = 117
              ExplicitHeight = 18
            end
            inherited lblCycles: TLabel
              Left = 562
              Width = 47
              Height = 18
              ExplicitLeft = 452
              ExplicitWidth = 47
              ExplicitHeight = 18
            end
            inherited lblModelSelection: TLabel
              Width = 109
              Height = 18
              ExplicitWidth = 109
              ExplicitHeight = 18
            end
            inherited fedModpathFile: TJvFilenameEdit
              Top = 32
              Width = 545
              Height = 26
              ExplicitTop = 32
              ExplicitWidth = 545
              ExplicitHeight = 26
            end
            inherited comboTimeToPlot: TComboBox
              Height = 26
              ExplicitHeight = 26
            end
            inherited udTimeToPlot: TJvUpDown
              Width = 17
              ExplicitWidth = 17
            end
            inherited comboColorScheme: TComboBox
              Left = 2
              Top = 190
              Width = 545
              Height = 26
              ExplicitLeft = 2
              ExplicitTop = 190
              ExplicitWidth = 545
              ExplicitHeight = 26
            end
            inherited seColorExponent: TJvSpinEdit
              Height = 26
              ExplicitHeight = 26
            end
            inherited seCycles: TJvSpinEdit
              Left = 562
              Height = 26
              ExplicitLeft = 562
              ExplicitHeight = 26
            end
            inherited comboModelSelection: TComboBox
              Height = 26
              ExplicitHeight = 26
            end
          end
          inherited tabOptions: TTabSheet
            ExplicitLeft = 4
            ExplicitTop = 29
            ExplicitWidth = 457
            ExplicitHeight = 365
            inherited rgShow2D: TRadioGroup
              Width = 551
              ExplicitWidth = 551
            end
            inherited rdgLimits: TRbwDataGrid4
              Width = 398
              Height = 320
              Anchors = [akLeft, akTop, akRight, akBottom]
              ExplicitWidth = 398
              ExplicitHeight = 320
            end
          end
        end
      end
    end
    object jvspModpathEndpoints: TJvStandardPage
      Left = 0
      Top = 0
      Width = 575
      Height = 501
      HelpType = htKeyword
      HelpKeyword = 'MODPATH_Endpoint_Display'
      Caption = 'jvspModpathEndpoints'
      inline frameModpathEndpointDisplay1: TframeModpathEndpointDisplay
        Left = 0
        Top = 0
        Width = 575
        Height = 501
        Align = alClient
        TabOrder = 0
        ExplicitWidth = 575
        ExplicitHeight = 501
        inherited pcMain: TPageControl
          Width = 575
          Height = 501
          ActivePage = frameModpathEndpointDisplay1.tabBasic
          ExplicitWidth = 575
          ExplicitHeight = 501
          inherited tabBasic: TTabSheet
            ExplicitLeft = 4
            ExplicitTop = 29
            ExplicitWidth = 567
            ExplicitHeight = 468
            inherited lblModpathFile: TLabel
              Width = 165
              Height = 18
              ExplicitWidth = 165
              ExplicitHeight = 18
            end
            inherited lblColorScheme: TLabel
              Width = 97
              Height = 18
              ExplicitWidth = 97
              ExplicitHeight = 18
            end
            inherited pbColorScheme: TPaintBox
              Width = 545
              ExplicitWidth = 545
            end
            inherited lblColorAdjustment: TLabel
              Width = 117
              Height = 18
              ExplicitWidth = 117
              ExplicitHeight = 18
            end
            inherited lblCycles: TLabel
              Left = 571
              Width = 47
              Height = 18
              ExplicitLeft = 472
              ExplicitWidth = 47
              ExplicitHeight = 18
            end
            inherited lblModelSelection: TLabel
              Width = 109
              Height = 18
              ExplicitWidth = 109
              ExplicitHeight = 18
            end
            inherited fedModpathFile: TJvFilenameEdit
              Top = 30
              Width = 545
              Height = 26
              ExplicitTop = 30
              ExplicitWidth = 545
              ExplicitHeight = 26
            end
            inherited comboColorScheme: TComboBox
              Width = 545
              Height = 26
              ExplicitWidth = 545
              ExplicitHeight = 26
            end
            inherited seColorExponent: TJvSpinEdit
              Top = 235
              Height = 26
              ExplicitTop = 235
              ExplicitHeight = 26
            end
            inherited seCycles: TJvSpinEdit
              Left = 571
              Top = 235
              Width = 84
              Height = 26
              ExplicitLeft = 571
              ExplicitTop = 235
              ExplicitWidth = 84
              ExplicitHeight = 26
            end
            inherited comboModelSelection: TComboBox
              Left = 2
              Top = 297
              Height = 26
              ExplicitLeft = 2
              ExplicitTop = 297
              ExplicitHeight = 26
            end
          end
          inherited tabOptions: TTabSheet
            ExplicitLeft = 4
            ExplicitTop = 29
            ExplicitWidth = 468
            ExplicitHeight = 326
            inherited rgShow2D: TRadioGroup
              Width = 316
              ExplicitWidth = 316
            end
            inherited rgWhereToPlot: TRadioGroup
              Left = 331
              ExplicitLeft = 331
            end
            inherited rgColorBy: TRadioGroup
              Height = 270
              ExplicitHeight = 270
            end
            inherited rdgLimits: TRbwDataGrid4
              Width = 379
              Height = 354
              Anchors = [akLeft, akTop, akRight, akBottom]
              ExplicitWidth = 379
              ExplicitHeight = 354
            end
          end
        end
      end
    end
    object jvspColorGrid: TJvStandardPage
      Left = 0
      Top = 0
      Width = 575
      Height = 501
      HelpType = htKeyword
      HelpKeyword = 'Color_Grid_Dialog_Box'
      Caption = 'jvspColorGrid'
      inline frameColorGrid: TframeColorGrid
        Left = 0
        Top = 0
        Width = 575
        Height = 501
        Align = alClient
        TabOrder = 0
        ExplicitWidth = 575
        ExplicitHeight = 501
        inherited pcChoices: TPageControl
          Width = 575
          Height = 501
          ExplicitWidth = 575
          ExplicitHeight = 501
          inherited tabSelection: TTabSheet
            ExplicitTop = 29
            ExplicitWidth = 567
            ExplicitHeight = 468
            inherited lblDataSet: TLabel
              Width = 212
              Height = 18
              ExplicitWidth = 212
              ExplicitHeight = 18
            end
            inherited lblColorScheme: TLabel
              Top = 305
              Width = 97
              Height = 18
              ExplicitTop = 271
              ExplicitWidth = 97
              ExplicitHeight = 18
            end
            inherited lblCycles: TLabel
              Left = 426
              Top = 303
              Width = 47
              Height = 18
              ExplicitLeft = 424
              ExplicitTop = 269
              ExplicitWidth = 47
              ExplicitHeight = 18
            end
            inherited pbColorScheme: TPaintBox
              Left = 8
              Top = 356
              Width = 367
              ExplicitLeft = 8
              ExplicitTop = 322
              ExplicitWidth = 365
            end
            inherited lblColorAdjustment: TLabel
              Top = 402
              Width = 117
              Height = 18
              ExplicitTop = 368
              ExplicitWidth = 117
              ExplicitHeight = 18
            end
            inherited lblComment: TLabel
              Width = 204
              Height = 18
              ExplicitWidth = 204
              ExplicitHeight = 18
            end
            inherited lblTime: TLabel
              Left = 426
              Width = 34
              Height = 18
              ExplicitLeft = 424
              ExplicitWidth = 34
              ExplicitHeight = 18
            end
            inherited comboColorScheme: TComboBox
              Top = 324
              Width = 412
              Height = 26
              ExplicitTop = 324
              ExplicitWidth = 412
              ExplicitHeight = 26
            end
            inherited seCycles: TJvSpinEdit
              Left = 426
              Top = 324
              Height = 26
              ExplicitLeft = 426
              ExplicitTop = 324
              ExplicitHeight = 26
            end
            inherited jsColorExponent: TJvxSlider
              Left = 8
              Top = 423
            end
            inherited seColorExponent: TJvSpinEdit
              Left = 164
              Top = 430
              Height = 26
              ExplicitLeft = 164
              ExplicitTop = 430
              ExplicitHeight = 26
            end
            inherited cbLogTransform: TCheckBox
              Top = 435
              ExplicitTop = 435
            end
            inherited udDataSets: TJvUpDown
              Left = 403
              Height = 26
              ExplicitLeft = 403
              ExplicitHeight = 26
            end
            inherited rgUpdateLimitChoice: TRadioGroup
              Top = 225
              ExplicitTop = 225
            end
            inherited virttreecomboDataSets: TRbwStringTreeCombo
              Width = 395
              Height = 26
              Anchors = [akLeft, akTop, akRight]
              ExplicitWidth = 411
              ExplicitHeight = 26
            end
            inherited reComment: TRichEdit
              Width = 519
              Height = 138
              ParentFont = True
              ExplicitWidth = 519
              ExplicitHeight = 138
            end
            inherited btnColorSchemes: TButton
              Left = 345
              Top = 257
              Width = 120
              ExplicitLeft = 345
              ExplicitTop = 257
              ExplicitWidth = 120
            end
            inherited udTime: TJvUpDown
              Left = 511
              Height = 26
              ExplicitLeft = 511
              ExplicitHeight = 26
            end
            inherited comboTime3D: TJvComboBox
              Left = 426
              Height = 26
              ItemHeight = 18
              ExplicitLeft = 426
              ExplicitHeight = 26
            end
          end
          inherited tabFilters: TTabSheet
            ExplicitTop = 29
            ExplicitHeight = 395
            inherited lblLowerLimit: TLabel
              Width = 75
              Height = 18
              ExplicitWidth = 75
              ExplicitHeight = 18
            end
            inherited lblUpperLimit: TLabel
              Width = 75
              Height = 18
              ExplicitWidth = 75
              ExplicitHeight = 18
            end
            inherited lblValuesToIgnore: TLabel
              Width = 112
              Height = 18
              ExplicitWidth = 112
              ExplicitHeight = 18
            end
            inherited lblNumberOfValuesToIgnore: TLabel
              Left = 135
              Top = 402
              Width = 185
              Height = 18
              ExplicitLeft = 135
              ExplicitTop = 402
              ExplicitWidth = 185
              ExplicitHeight = 18
            end
            inherited lblEpsilon: TLabel
              Width = 168
              Height = 18
              ExplicitWidth = 168
              ExplicitHeight = 18
            end
            inherited frameCheck3DMax: TframeDisplayLimit
              inherited comboBoolLimit: TComboBox
                Height = 26
                ExplicitHeight = 26
              end
            end
            inherited frameCheck3DMin: TframeDisplayLimit
              inherited comboBoolLimit: TComboBox
                Height = 26
                ExplicitHeight = 26
              end
            end
            inherited cbActiveOnly: TCheckBox
              Width = 145
              ExplicitWidth = 145
            end
            inherited rdgValuesToIgnore: TRbwDataGrid4
              Height = 281
              ExplicitHeight = 281
            end
            inherited seNumberOfValuesToIgnore: TJvSpinEdit
              Top = 399
              Height = 26
              ExplicitTop = 399
              ExplicitHeight = 26
            end
          end
          inherited tabLegend: TTabSheet
            ExplicitTop = 29
            ExplicitHeight = 395
            inherited imLegend: TImage
              Height = 395
              ExplicitWidth = 347
              ExplicitHeight = 495
            end
            inherited pnlLegend: TPanel
              Height = 395
              ExplicitHeight = 395
              inherited lblMethod: TLabel
                Width = 52
                Height = 18
                ExplicitWidth = 52
                ExplicitHeight = 18
              end
              inherited lblColorLegendRows: TLabel
                Top = 317
                Width = 109
                Height = 18
                ExplicitTop = 317
                ExplicitWidth = 109
                ExplicitHeight = 18
              end
              inherited comboMethod: TComboBox
                Height = 26
                ExplicitHeight = 26
              end
              inherited seLegendRows: TJvSpinEdit
                Top = 338
                Height = 26
                ExplicitTop = 338
                ExplicitHeight = 26
              end
              inherited rdgLegend: TRbwDataGrid4
                Height = 252
                ExplicitHeight = 252
              end
            end
          end
        end
      end
    end
    object jvspContourData: TJvStandardPage
      Left = 0
      Top = 0
      Width = 575
      Height = 501
      HelpType = htKeyword
      HelpKeyword = 'Contour_Data_Dialog_Box'
      Caption = 'jvspContourData'
      inline frameContourData: TframeContourData
        Left = 0
        Top = 0
        Width = 575
        Height = 501
        Align = alClient
        TabOrder = 0
        ExplicitWidth = 575
        ExplicitHeight = 501
        inherited pcChoices: TPageControl
          Width = 575
          Height = 501
          ExplicitWidth = 575
          ExplicitHeight = 501
          inherited tabSelection: TTabSheet
            ExplicitTop = 29
            ExplicitWidth = 567
            ExplicitHeight = 468
            inherited lblDataSet: TLabel
              Width = 59
              Height = 18
              Caption = 'Data set'
              ExplicitWidth = 59
              ExplicitHeight = 18
            end
            inherited lblColorScheme: TLabel
              Top = 295
              Width = 97
              Height = 18
              ExplicitTop = 271
              ExplicitWidth = 97
              ExplicitHeight = 18
            end
            inherited lblCycles: TLabel
              Left = 461
              Top = 294
              Width = 47
              Height = 18
              ExplicitLeft = 461
              ExplicitTop = 270
              ExplicitWidth = 47
              ExplicitHeight = 18
            end
            inherited pbColorScheme: TPaintBox
              Top = 359
              Width = 402
              ExplicitTop = 335
              ExplicitWidth = 402
            end
            inherited lblColorAdjustment: TLabel
              Top = 401
              Width = 117
              Height = 18
              ExplicitTop = 377
              ExplicitWidth = 117
              ExplicitHeight = 18
            end
            inherited lblComment: TLabel
              Width = 204
              Height = 18
              ExplicitWidth = 204
              ExplicitHeight = 18
            end
            inherited lblAlgorithm: TLabel
              Left = 8
              Top = 160
              Width = 52
              Height = 18
              Anchors = [akLeft, akBottom]