inherited frmLayers: TfrmLayers
  HelpType = htKeyword
  HelpKeyword = 'MODFLOW_Layer_Groups_Dialog_Box'
  Caption = 'MODFLOW Layer Groups'
  ClientHeight = 345
  ClientWidth = 562
  OnDestroy = FormDestroy
  ExplicitWidth = 570
  ExplicitHeight = 379
  PixelsPerInch = 96
  TextHeight = 18
  object Splitter1: TSplitter
    Left = 137
    Top = 0
    Width = 5
    Height = 304
    ExplicitHeight = 278
  end
  object pcLayerGroups: TPageControl
    Left = 142
    Top = 0
    Width = 420
    Height = 304
    ActivePage = tabBasics
    Align = alClient
    TabOrder = 0
    OnChange = pcLayerGroupsChange
    object tabBasics: TTabSheet
      HelpType = htKeyword
      HelpKeyword = 'Basics_Tab'
      Caption = 'Basics'
      ExplicitLeft = 0
      ExplicitTop = 28
      ExplicitWidth = 0
      ExplicitHeight = 246
      DesignSize = (
        412
        271)
      object Label1: TLabel
        Left = 2
        Top = 3
        Width = 196
        Height = 18
        Caption = 'Layer Group (Aquifer) Name'
      end
      object Label5: TLabel
        Left = 2
        Top = 57
        Width = 202
        Height = 18
        Caption = 'Layer type (LAYTYP, LTHUF)'
      end
      object lblInterblockMethod: TLabel
        Left = 3
        Top = 121
        Width = 391
        Height = 18
        Caption = 'Method of calculating interblock transmissivity (LAYAVG)'
      end
      object lbVertKMethod: TLabel
        Left = 2
        Top = 187
        Width = 349
        Height = 36
        Caption = 'Method of specifying vertical hydraulic conductivity (LAYVKA)'
        WordWrap = True
      end
      object comboAquiferType: TJvImageComboBox
        Left = 3
        Top = 77
        Width = 151
        Height = 28
        Style = csOwnerDrawVariable
        ButtonStyle = fsLighter
        DroppedWidth = 151
        ImageHeight = 0
        ImageWidth = 0
        Images = ImageList1
        ItemHeight = 22
        ItemIndex = 1
        TabOrder = 1
        OnChange = comboAquiferTypeChange
        Items = <
          item
            Brush.Style = bsClear
            ImageIndex = 3
            Indent = 0
            Text = 'Non-simulated'
          end
          item
            Brush.Style = bsClear
            ImageIndex = 0
            Indent = 0
            Text = 'Confined'
          end
          item
            Brush.Style = bsClear
            ImageIndex = 1
            Indent = 0
            Text = 'Convertible'
          end>
      end
      object comboInterblockMethod: TJvImageComboBox
        Left = 3
        Top = 144
        Width = 406
        Height = 28
        Style = csOwnerDrawVariable
        Anchors = [akLeft, akTop, akRight]
        ButtonStyle = fsLighter
        DroppedWidth = 408
        ImageHeight = 0
        ImageWidth = 0
        ItemHeight = 22
        ItemIndex = 0
        TabOrder = 2
        OnChange = comboInterblockMethodChange
        Items = <
          item
            Brush.Style = bsClear
            Indent = 0
            Text = 'Harmonic mean (0)'
          end
          item
            Brush.Style = bsClear
            Indent = 0
            Text = 'Logarithmic mean (1)'
          end
          item
            Brush.Style = bsClear
            Indent = 0
            Text = 'Arithmetic and logarithmic (2)'
          end>
      end
      object comboVertKMethod: TJvImageComboBox
        Left = 3
        Top = 226
        Width = 406
        Height = 28
        Style = csOwnerDrawVariable
        Anchors = [akLeft, akTop, akRight]
        ButtonStyle = fsLighter
        DroppedWidth = 408
        ImageHeight = 0
        ImageWidth = 0
        ItemHeight = 22
        ItemIndex = 0
        TabOrder = 3
        OnChange = comboVertKMethodChange
        Items = <
          item
            Brush.Style = bsClear
            Indent = 0
            Text = 'Vertical hydraulic conductivity (0)'
          end
          item
            Brush.Style = bsClear
            Indent = 0
            Text = 'Ratio of horizontal to vertical hydraulic conductivity (1)'
          end>
      end
      object edName: TRbwEdit
        Left = 3
        Top = 26
        Width = 406
        Height = 26
        Anchors = [akLeft, akTop, akRight]
        TabOrder = 0
        OnChange = edNameChange
      end
      object cbComputeSaturatedThickness: TJvCheckBox
        Left = 160
        Top = 73
        Width = 249
        Height = 40
        Anchors = [akLeft, akTop, akRight]
        Caption = 'Compute saturated thickness using starting head (LAYTYP)'
        TabOrder = 4
        WordWrap = True
        OnClick = cbComputeSaturatedThicknessClick
        LinkedControls = <>
        AutoSize = False
        HotTrackFont.Charset = ANSI_CHARSET
        HotTrackFont.Color = clWindowText
        HotTrackFont.Height = -16
        HotTrackFont.Name = 'Arial'
        HotTrackFont.Pitch = fpVariable
        HotTrackFont.Style = []
      end
    end
    object tabDiscretization: TTabSheet
      HelpType = htKeyword
      HelpKeyword = 'Discretization_Tab'
      Caption = 'Discretization'
      ImageIndex = 1
      ExplicitLeft = 0
      ExplicitTop = 28
      ExplicitWidth = 0
      ExplicitHeight = 246
      DesignSize = (
        412
        271)
      object Label2: TLabel
        Left = 8
        Top = 8
        Width = 149
        Height = 18
        Caption = 'Vertical discretization'
      end
      object Label3: TLabel
        Left = 8
        Top = 59
        Width = 137
        Height = 18
        Caption = 'Layer size multiplier'
      end
      object rdeVDiscretization: TRbwDataEntry
        Left = 8
        Top = 31
        Width = 57
        Height = 22
        ItemHeight = 0
        TabOrder = 0
        Text = '1'
        OnChange = rdeVDiscretizationChange
        DataType = dtInteger
        Max = 1.000000000000000000
        Min = 1.000000000000000000
        CheckMin = True
        ChangeDisabledColor = True
      end
      object rdeGrowthRate: TRbwDataEntry
        Left = 8
        Top = 82
        Width = 57
        Height = 22
        ItemHeight = 0
        TabOrder = 1
        Text = '1.2'
        OnChange = rdeGrowthRateChange
        OnExit = rdeGrowthRateExit
        DataType = dtReal
        Max = 1.000000000000000000
        Min = 1.000000000000000000
        CheckMin = True
        ChangeDisabledColor = True
      end
      object rgMethod: TRadioGroup
        Left = 8
        Top = 110
        Width = 234
        Height = 153
        Anchors = [akLeft, akTop, akBottom]
        Caption = 'Method'
        ItemIndex = 0
        Items.Strings = (
          'Uniform spacing'
          'Increase upward'
          'Increase downward'
          'Increase toward middle'
          'Increase toward edges'
          'Custom')
        TabOrder = 2
        OnClick = rgMethodClick
        ExplicitHeight = 128
      end
      object pnlDiscritization: TPanel
        Left = 248
        Top = 0
        Width = 163
        Height = 269
        Anchors = [akLeft, akTop, akRight, akBottom]
        BevelOuter = bvNone
        TabOrder = 3
        ExplicitHeight = 244
        object Splitter2: TSplitter
          Left = 75
          Top = 41
          Height = 228
          Align = alRight
          ExplicitLeft = 96
          ExplicitTop = 96
          ExplicitHeight = 100
        end
        object rdgSubLayerBoundaries: TRbwDataGrid4
          Left = 0
          Top = 41
          Width = 75
          Height = 228
          Align = alClient
          ColCount = 1
          FixedCols = 0
          RowCount = 2
          Options = [goFixedVertLine, goFixedHorzLine, goVertLine, goHorzLine, goRangeSelect, goEditing, goTabs]
          TabOrder = 0
          OnExit = rdgSubLayerBoundariesExit
          OnSelectCell = rdgSubLayerBoundariesSelectCell
          OnSetEditText = rdgSubLayerBoundariesSetEditText
          AutoDistributeText = False
          AutoIncreaseColCount = False
          AutoIncreaseRowCount = False
          SelectedRowOrColumnColor = clAqua
          UnselectableColor = clBtnFace
          ColorRangeSelection = False
          ColorSelectedRow = False
          Columns = <
            item
              AutoAdjustRowHeights = True
              ButtonCaption = '...'
              ButtonFont.Charset = DEFAULT_CHARSET
              ButtonFont.Color = clWindowText
              ButtonFont.Height = -11
              ButtonFont.Name = 'Tahoma'
              ButtonFont.Style = []
              ButtonUsed = False
              ButtonWidth = 20
              CheckMax = True
              CheckMin = True
              ComboUsed = False
              Format = rcf4Real
              LimitToList = False
              Max = 1.000000000000000000
              MaxLength = 0
              ParentButtonFont = False
              WordWrapCaptions = True
              WordWrapCells = False
              AutoAdjustColWidths = True
            end>
          ExplicitHeight = 203
        end
        object Panel2: TPanel
          Left = 0
          Top = 0
          Width = 163
          Height = 41
          Align = alTop
          BevelOuter = bvNone
          TabOrder = 1
          object Label4: TLabel
            Left = 0
            Top = 0
            Width = 142
            Height = 36
            Align = alClient
            Alignment = taCenter
            Caption = 'Discretization within layer group'
            Layout = tlCenter
            WordWrap = True
          end
        end
        object pnlPaintboxParent: TPanel
          Left = 78
          Top = 41
          Width = 85
          Height = 228
          Align = alRight
          BevelOuter = bvNone
          TabOrder = 2
          OnResize = pnlPaintboxParentResize
          ExplicitHeight = 203
          object pbSubLayers: TPaintBox
            Left = 0
            Top = 0
            Width = 85
            Height = 196
            Align = alClient
            Color = clWhite
            ParentColor = False
            OnMouseDown = pbSubLayersMouseDown
            OnMouseEnter = pbSubLayersMouseEnter
            OnMouseLeave = pbSubLayersMouseLeave
            OnMouseMove = pbSubLayersMouseMove
            OnMouseUp = pbSubLayersMouseUp
            OnPaint = pbSubLayersPaint
            ExplicitLeft = 3
            ExplicitTop = 3
            ExplicitWidth = 79
            ExplicitHeight = 86
          end
          object GridPanel2: TGridPanel
            Left = 0
            Top = 196
            Width = 85
            Height = 32
            Align = alBottom
            ColumnCollection = <
              item
                Value = 33.333333333333340000
              end
              item
                Value = 33.333333333333340000
              end
              item
                Value = 33.333333333333340000
              end>
            ControlCollection = <
              item
                Column = 0
                Control = sbInsertLine
                Row = 0
              end
              item
                Column = 1
                Control = sbMoveLine
                Row = 0
              end
              item
                Column = 2
                Control = sbDeleteLine
                Row = 0
              end>
            RowCollection = <
              item
                Value = 100.000000000000000000
              end>
            TabOrder = 0
            ExplicitTop = 171
            DesignSize = (
              85
              32)
            object sbInsertLine: TSpeedButton
              Left = 3
              Top = 5
              Width = 23
              Height = 22
              Hint = 'Insert grid line|Insert a grid line using a mouse click'
              Anchors = []
              GroupIndex = 1
              Glyph.Data = {
                36030000424D3603000000000000360000002800000010000000100000000100
                18000000000000030000120B0000120B00000000000000000000FFFFFFFFFFFF
                FFFFFFFFFFFFFFFFFFFFFFFFFFFFFFFFFFFFFFFFFFFFFFFFFFFFFFFFFFFFFFFF
                FFFFFFFFFFFFFFFFFFFFFFFFFFFFFFFFFFFFFFFFFFFFFFFFFFFFFFFFFFFFFFFF
                FFFFFFFFFFFFFFFFFFFFFFFFFFFFFFFFFFFFFFFFFFFFFFFFFFFFFFFFFFFFFFFF
                FFFFFFFFFFFFFFFFFFFFFFFFFFFFFFFFFFFFFFFFFFFFFFFFFFFFFFFFFFFFFFFF
                FFFFFFFFFFFFFFFFFFFFFFFFFFFFFFFFFFFFFFFFFFFFFFFFFFFFFFFFFFFFFFFF
                FFFFFFFFFFFFFFFFFFFFFFFFFFFFFFFFFFFFFFFFFFFFFFFFFFFFFFFFFFFFFFFF
                FFFFFFFFFFFFFFFFFFFFFFFFFFFFFFFFFFFFFFFFFFFFFFFFFFFFFFFFFFFFFFFF
                FFFFFFFFFFFFFFFFFFFFFFFFFFFFFFFFFFFFFFFFFFFFFFFFFFFFFFFFFFFFFFFF
                FFFFFFFFFFFFFFFFFFFFFFFFFFFFFFFFFFFFFFFFFFFFFFFFFFFFFFFFFFFFFFFF
                FFFFFFFFFFFFFFFFFFFFFFFFFFFFFFFFFFFFFFFFFFFFFFFFFFFFFFFFFFFFFFFF
                FFFFFFFFFFFFFFFFFFFFFFFFFFFFFFFFFFFFFFFFFFFFFFFFFFFFFFFFFFFFFFFF
                FFFFFFFFFFFFFFFFFFFFFFFFFFFFFFFFFFFFFFFFFFFFFFFFFFFFFFFFFF000000
                0000000000000000000000000000000000000000000000000000000000000000
                00000000000000FFFFFFFFFFFFFFFFFFFFFFFFFFFFFFFFFFFFFFFFFFFFFFFFFF
                FFFFFFFFFFFFFFFFFFFFFFFFFFFFFFFFFFFFFFFFFFFFFFFFFFFFFFFFFFFFFFFF
                FFFFFFFFFFFFFFFFFFFFFFFFFFFFFFFFFFFFFFFFFFFFFFFFFFFFFFFFFFFFFFFF
                FFFFFFFFFFFFFFFFFFFFFFFFFFFFFFFFFFFFFFFFFFFFFFFFFFFFFFFFFFFFFFFF
                FFFFFFFFFFFFFFFFFFFFFFFFFFFFFFFFFFFFFFFFFFFFFFFFFFFFFFFFFFFFFFFF
                FFFFFFFFFFFFFFFFFFFFFFFFFFFFFFFFFFFFFFFFFFFFFFFFFFFFFFFFFFFFFFFF
                FFFFFFFFFFFFFFFFFFFFFFFFFFFFFFFFFFFFFFFFFFFFFFFFFFFFFFFFFFFFFFFF
                FFFFFFFFFFFFFFFFFFFFFFFFFFFFFFFFFFFFFFFFFFFFFFFFFFFFFFFFFFFFFFFF
                FFFFFFFFFFFFFFFFFFFFFFFFFFFFFFFFFFFFFFFFFFFFFFFFFFFFFFFFFFFFFFFF
                FFFFFFFFFFFFFFFFFFFFFFFFFFFFFFFFFFFFFFFFFFFFFFFFFFFFFFFFFFFFFFFF
                FFFFFFFFFFFFFFFFFFFFFFFFFFFFFFFFFFFFFFFFFFFFFFFFFFFF}
              ParentShowHint = False
              ShowHint = True
              ExplicitTop = 9
            end
            object sbMoveLine: TSpeedButton
              Left = 30
              Top = 5
              Width = 23
              Height = 22
              Hint = 'Move grid line|Move a grid line by dragging with the mouse'
              Anchors = []
              GroupIndex = 1
              Glyph.Data = {
                16070000424D160700000000000036000000280000001A000000160000000100
                180000000000E006000074120000741200000000000000000000E1E1E1E1E1E1
                E1E1E1E1E1E1E1E1E1E1E1E1E1E1E1E1E1E1E1E1E1E1E1E1E1E1E1E1E1E1E1E1
                E1E1E1E1E1E1E1E1E1E1E1E1E1E1E1E1E1E1E1E1E1E1E1E1E1E1E1E1E1E1E1E1
                E1E1E1E1E1E1E1E10000E1E1E1E1E1E1E1E1E1E1E1E1E1E1E1E1E1E1E1E1E1E1
                E1E1E1E1E1E1E1E1E1E1E1E1E1E1E1E1E1E1E1E1E1E1E1E1E1E1E1E1E1E1E1E1
                E1E1E1E1E1E1E1E1E1E1E1E1E1E1E1E1E1E1E1E1E1E1E1E10000E1E1E1E1E1E1
                E1E1E1E1E1E1E1E1E1E1E1E1E1E1E1E1E1E1E1E1E1E1E1E1E1E1E1E1E1E1E1E1
                E1E1E1E1E1E1E1E1E1E1E1E1E1E1E1E1E1E1E1E1E1E1E1E1E1E1E1E1E1E1E1E1
                E1E1E1E1E1E1E1E10000E1E1E1E1E1E1E1E1E1E1E1E1E1E1E1E1E1E1E1E1E1E1
                E1E1E1E1E1E1E1E1E1E1E1E1E1E1000000E1E1E1E1E1E1E1E1E1E1E1E1E1E1E1
                E1E1E1E1E1E1E1E1E1E1E1E1E1E1E1E1E1E1E1E1E1E1E1E10000E1E1E1E1E1E1
                E1E1E1E1E1E1E1E1E1E1E1E1E1E1E1E1E1E1E1E1E1E1E1E1E1E1E10000000000
                00000000E1E1E1E1E1E1E1E1E1E1E1E1E1E1E1E1E1E1E1E1E1E1E1E1E1E1E1E1
                E1E1E1E1E1E1E1E10000E1E1E1E1E1E1E1E1E1E1E1E1E1E1E1E1E1E1E1E1E1E1
                E1E1E1E1E1E1E1E1000000E1E1E1000000E1E1E1000000E1E1E1E1E1E1E1E1E1
                E1E1E1E1E1E1E1E1E1E1E1E1E1E1E1E1E1E1E1E1E1E1E1E10000E1E1E1E1E1E1
                E1E1E1E1E1E1E1E1E1E1E1E1E1E1E1E1E1E1E1E1E1E1E1E1E1E1E1E1E1E10000
                00E1E1E1E1E1E1E1E1E1E1E1E1E1E1E1E1E1E1E1E1E1E1E1E1E1E1E1E1E1E1E1
                E1E1E1E1E1E1E1E10000E1E1E1E1E1E1E1E1E1E1E1E1E1E1E1E1E1E1E1E1E1E1
                E1E1E1E1E1E1E1E1E1E1E1E1E1E1000000E1E1E1E1E1E1E1E1E1E1E1E1E1E1E1
                E1E1E1E1E1E1E1E1E1E1E1E1E1E1E1E1E1E1E1E1E1E1E1E10000E1E1E1E1E1E1
                E1E1E1E1E1E1E1E1E1E1E1E1E1E1E1E1E1E1E1E1E1E1E1E1E1E1E1E1E1E1E1E1
                E1E1E1E1E1E1E1E1E1E1E1E1E1E1E1E1E1E1E1E1E1E1E1E1E1E1E1E1E1E1E1E1
                E1E1E1E1E1E1E1E10000E1E1E1E1E1E1E1E1E1E1E1E1E1E1E1E1E1E100000000
                0000000000000000000000000000000000000000000000000000000000000000
                000000E1E1E1E1E1E1E1E1E1E1E1E1E1E1E1E1E1E1E1E1E10000E1E1E1E1E1E1
                E1E1E1E1E1E1E1E1E1E1E1E1E1E1E1E1E1E1E1E1E1E1E1E1E1E1E1E1E1E1E1E1
                E1E1E1E1E1E1E1E1E1E1E1E1E1E1E1E1E1E1E1E1E1E1E1E1E1E1E1E1E1E1E1E1
                E1E1E1E1E1E1E1E10000E1E1E1E1E1E1E1E1E1E1E1E1E1E1E1E1E1E1E1E1E1E1
                E1E1E1E1E1E1E1E1E1E1E1E1E1E1E1E1E1E1E1E1E1E1E1E1E1E1E1E1E1E1E1E1
                E1E1E1E1E1E1E1E1E1E1E1E1E1E1E1E1E1E1E1E1E1E1E1E10000E1E1E1E1E1E1
                E1E1E1E1E1E1E1E1E1E1E1E10000000000000000000000000000000000000000
                00000000000000000000000000000000000000E1E1E1E1E1E1E1E1E1E1E1E1E1
                E1E1E1E1E1E1E1E10000E1E1E1E1E1E1E1E1E1E1E1E1E1E1E1E1E1E1E1E1E1E1
                E1E1E1E1E1E1E1E1E1E1E1E1E1E1E1E1E1E1E1E1E1E1E1E1E1E1E1E1E1E1E1E1
                E1E1E1E1E1E1E1E1E1E1E1E1E1E1E1E1E1E1E1E1E1E1E1E10000E1E1E1E1E1E1
                E1E1E1E1E1E1E1E1E1E1E1E1E1E1E1E1E1E1E1E1E1E1E1E1E1E1E1E1E1E10000
                00E1E1E1E1E1E1E1E1E1E1E1E1E1E1E1E1E1E1E1E1E1E1E1E1E1E1E1E1E1E1E1
                E1E1E1E1E1E1E1E10000E1E1E1E1E1E1E1E1E1E1E1E1E1E1E1E1E1E1E1E1E1E1
                E1E1E1E1E1E1E1E1E1E1E1E1E1E1000000E1E1E1E1E1E1E1E1E1E1E1E1E1E1E1
                E1E1E1E1E1E1E1E1E1E1E1E1E1E1E1E1E1E1E1E1E1E1E1E10000E1E1E1E1E1E1
                E1E1E1E1E1E1E1E1E1E1E1E1E1E1E1E1E1E1E1E1E1E1E1E1000000E1E1E10000
                00E1E1E1000000E1E1E1E1E1E1E1E1E1E1E1E1E1E1E1E1E1E1E1E1E1E1E1E1E1
                E1E1E1E1E1E1E1E10000E1E1E1E1E1E1E1E1E1E1E1E1E1E1E1E1E1E1E1E1E1E1
                E1E1E1E1E1E1E1E1E1E1E1000000000000000000E1E1E1E1E1E1E1E1E1E1E1E1
                E1E1E1E1E1E1E1E1E1E1E1E1E1E1E1E1E1E1E1E1E1E1E1E10000E1E1E1E1E1E1
                E1E1E1E1E1E1E1E1E1E1E1E1E1E1E1E1E1E1E1E1E1E1E1E1E1E1E1E1E1E10000
                00E1E1E1E1E1E1E1E1E1E1E1E1E1E1E1E1E1E1E1E1E1E1E1E1E1E1E1E1E1E1E1
                E1E1E1E1E1E1E1E10000E1E1E1E1E1E1E1E1E1E1E1E1E1E1E1E1E1E1E1E1E1E1
                E1E1E1E1E1E1E1E1E1E1E1E1E1E1E1E1E1E1E1E1E1E1E1E1E1E1E1E1E1E1E1E1
                E1E1E1E1E1E1E1E1E1E1E1E1E1E1E1E1E1E1E1E1E1E1E1E10000E1E1E1E1E1E1
                E1E1E1E1E1E1E1E1E1E1E1E1E1E1E1E1E1E1E1E1E1E1E1E1E1E1E1E1E1E1E1E1
                E1E1E1E1E1E1E1E1E1E1E1E1E1E1E1E1E1E1E1E1E1E1E1E1E1E1E1E1E1E1E1E1
                E1E1E1E1E1E1E1E10000E1E1E1E1E1E1E1E1E1E1E1E1E1E1E1E1E1E1E1E1E1E1
                E1E1E1E1E1E1E1E1E1E1E1E1E1E1E1E1E1E1E1E1E1E1E1E1E1E1E1E1E1E1E1E1
                E1E1E1E1E1E1E1E1E1E1E1E1E1E1E1E1E1E1E1E1E1E1E1E10000}
              ParentShowHint = False
              ShowHint = True
              ExplicitTop = 9
            end
            object sbDeleteLine: TSpeedButton
              Left = 58
              Top = 5
              Width = 23
              Height = 22
              Hint = 'Delete grid line|Delete a grid line by clicking on it'
              Anchors = []
              GroupIndex = 1
              Glyph.Data = {
                36030000424D3603000000000000360000002800000010000000100000000100
                18000000000000030000120B0000120B00000000000000000000FF00FFFF00FF
                FF00FFFF00FFFF00FFFF00FFFF00FFFF00FFFF00FFFF00FFFF00FFFF00FFFF00
                FFFF00FF0732DE0732DEFF00FF0732DE0732DEFF00FFFF00FFFF00FFFF00FFFF
                00FFFF00FFFF00FFFF00FFFF00FFFF00FF0732DE0732DEFF00FFFF00FF0732DE
                0732DE0732DEFF00FFFF00FFFF00FFFF00FFFF00FFFF00FFFF00FFFF00FF0732
                DE0732DEFF00FFFF00FFFF00FF0732DE0732DD0732DE0732DEFF00FFFF00FFFF
                00FFFF00FFFF00FFFF00FF0732DE0732DEFF00FFFF00FFFF00FFFF00FFFF00FF
                0534ED0732DF0732DE0732DEFF00FFFF00FFFF00FFFF00FF0732DE0732DEFF00
                FFFF00FFFF00FFFF00FFFF00FFFF00FFFF00FFFF00FF0732DE0732DE0732DDFF
                00FF0732DD0732DE0732DEFF00FFFF00FFFF00FFFF00FFFF00FFFF00FFFF00FF
                FF00FFFF00FFFF00FF0732DD0633E60633E60633E90732DCFF00FFFF00FFFF00
                FFFF00FFFF00FFFF00FFFF00FFFF00FFFF00FFFF00FFFF00FFFF00FF0633E307
                32E30534EFFF00FFFF00FFFF00FFFF00FFFF00FFFF00FFFF00FFFF00FFFF00FF
                FF00FFFF00FFFF00FF0732DD0534ED0533E90434EF0434F5FF00FFFF00FFFF00
                FFFF00FFFF00FFFF00FFFF00FFFF00FFFF00FFFF00FF0434F40534EF0533EBFF
                00FFFF00FF0434F40335F8FF00FFFF00FFFF00FFFF00FFFF00FFFF00FFFF00FF
                FF00FF0335FC0534EF0434F8FF00FFFF00FFFF00FFFF00FF0335FC0335FBFF00
                FFFF00FFFF00FFFF00FFFF00FFFF00FF0335FB0335FB0335FCFF00FFFF00FFFF
                00FFFF00FFFF00FFFF00FF0335FB0335FBFF00FFFF00FFFF00FFFF00FF0335FB
                0335FB0335FBFF00FFFF00FFFF00FFFF00FFFF00FFFF00FFFF00FFFF00FFFF00
                FF0335FBFF00FFFF00FF0335FB0335FB0335FBFF00FFFF00FFFF00FFFF00FFFF
                00FFFF00FFFF00FFFF00FFFF00FFFF00FFFF00FFFF00FFFF00FF0335FB0335FB
                FF00FFFF00FFFF00FFFF00FFFF00FFFF00FFFF00FFFF00FFFF00FFFF00FFFF00
                FFFF00FFFF00FFFF00FFFF00FFFF00FFFF00FFFF00FFFF00FFFF00FFFF00FFFF
                00FFFF00FFFF00FFFF00FFFF00FFFF00FFFF00FFFF00FFFF00FF}
              ParentShowHint = False
              ShowHint = True
              ExplicitTop = 9
            end
          end
        end
      end
    end
  end
  object Panel4: TPanel
    Left = 0
    Top = 304
    Width = 562
    Height = 41
    Align = alBottom
    TabOrder = 1
    ExplicitTop = 278
    DesignSize = (
      562
      41)
    object btnHelp: TBitBtn
      Left = 221
      Top = 4
      Width = 108
      Height = 33
      Anchors = [akTop, akRight]
      TabOrder = 0
      OnClick = btnHelpClick
      Kind = bkHelp
    end
    object btnOK: TBitBtn
      Left = 335
      Top = 4
      Width = 108
      Height = 33
      Anchors = [akTop, akRight]
      TabOrder = 1
      OnClick = btnOKClick
      Kind = bkOK
    end
    object btnCancel: TBitBtn
      Left = 449
      Top = 4
      Width = 108
      Height = 33
      Anchors = [akTop, akRight]
      TabOrder = 2
      Kind = bkCancel
    end
  end
  object Panel3: TPanel
    Left = 0
    Top = 0
    Width = 137
    Height = 304
    Align = alLeft
    TabOrder = 2
    ExplicitHeight = 278
    object GridPanel1: TGridPanel
      Left = 1
      Top = 271
      Width = 135
      Height = 32
      Align = alBottom
      ColumnCollection = <
        item
          Value = 33.333333333333340000
        end
        item
          Value = 33.333333333333340000
        end
        item
          Value = 33.333333333333340000
        end>
      ControlCollection = <
        item
          Column = 0
          Control = sbAddUnit
          Row = 0
        end
        item
          Column = 1
          Control = sbInsertUnit
          Row = 0
        end
        item
          Column = 2
          Control = sbDeleteUnit
          Row = 0
        end>
      RowCollection = <
        item
          Value = 100.000000000000000000
        end>
      TabOrder = 0
      ExplicitTop = 245
      DesignSize = (
        135
        32)
      object sbAddUnit: TSpeedButton
        Left = 11
        Top = 5
        Width = 23
        Height = 22
        Hint = 'Add layer group|Add a layer group below the bottom layer group.'
        Anchors = []
        Glyph.Data = {
          F6000000424DF600000000000000760000002800000010000000100000000100
          0400000000008000000000000000000000001000000000000000000000000000
          8000008000000080800080000000800080008080000080808000C0C0C0000000
          FF0000FF000000FFFF00FF000000FF00FF00FFFF0000FFFFFF00FFFFFFFFFFFF
          FFFFFFFFFFFFFFFFFFFFFFFF00000000000FF0FF0CCCCCCCCC0F000F0CCCCCCC
          CC0FF0FF0CCCCCCCCC0FFFFF00000000000FFFFF0FFFFFFFFF0FFFFF0FFFFFFF
          FF0FFFFF0FFFFFFFFF0FFFFF00000000000FFFFF0FFFFFFFFF0FFFFF0FFFFFFF
          FF0FFFFF0FFFFFFFFF0FFFFF00000000000FFFFFFFFFFFFFFFFF}
        ParentShowHint = False
        ShowHint = True
        OnClick = sbAddUnitClick
        ExplicitTop = 6
      end
      object sbInsertUnit: TSpeedButton
        Left = 55
        Top = 5
        Width = 23
        Height = 22
        Hint = 
          'Insert layer group|Insert a layer group above the selected layer' +
          ' group.'
        Anchors = []
        Glyph.Data = {
          F6000000424DF600000000000000760000002800000010000000100000000100
          0400000000008000000000000000000000001000000000000000000000000000
          8000008000000080800080000000800080008080000080808000C0C0C0000000
          FF0000FF000000FFFF00FF000000FF00FF00FFFF0000FFFFFF00FFFFFFFFFFFF
          FFFFFFFFFFFFFFFFFFFFFFFF00000000000FFFFF0FFFFFFFFF0FFFFF0FFFFFFF
          FF0FFFFF0FFFFFFFFF0FFFFF00000000000FF0FF0CCCCCCCCC0F000F0CCCCCCC
          CC0FF0FF0CCCCCCCCC0FFFFF00000000000FFFFF0FFFFFFFFF0FFFFF0FFFFFFF
          FF0FFFFF0FFFFFFFFF0FFFFF00000000000FFFFFFFFFFFFFFFFF}
        ParentShowHint = False
        ShowHint = True
        OnClick = sbInsertUnitClick
        ExplicitLeft = 48
        ExplicitTop = 15
      end
      object sbDeleteUnit: TSpeedButton
        Left = 100
        Top = 5
        Width = 23
        Height = 22
        Hint = 'Delete layer group|Delete the selected layer group.'
        Anchors = []
        Glyph.Data = {
          36030000424D3603000000000000360000002800000010000000100000000100
          18000000000000030000120B0000120B00000000000000000000FFFFFFFFFFFF
          FFFFFFFFFFFFFFFFFFFFFFFFFFFFFFFFFFFFFFFFFFFFFFFFFFFFFFFFFFFFFFFF
          FFFFFFFFFFFFFFFFFFFFFFFFFFFFFFFFFFFFFFFFFFFFFFFFFFFFFFFFFFFFFFFF
          FFFFFFFFFFFFFFFFFFFFFFFFFFFFFFFFFFFFFFFFFFFFFFFFFFFFFFFFFFFFFFFF
          FFFFFF000000FFFFFFFFFFFFFFFFFFFFFFFFFFFFFFFFFFFFFFFFFFFFFFFFFFFF
          FFFFFFFF000000FFFFFFFFFFFFFFFFFF000000000000000000FFFFFFFFFFFFFF
          FFFFFFFFFFFFFFFFFFFFFFFFFFFFFFFFFFFFFFFFFFFFFFFFFFFFFFFFFFFFFFFF
          000000000000000000000000FFFFFFFFFFFFFFFFFFFFFFFFFFFFFFFFFFFFFFFF
          FF000000FFFFFFFFFFFFFFFFFFFFFFFFFFFFFF000000000000000000FFFFFFFF
          FFFFFFFFFFFFFFFFFFFFFFFFFFFF000000FFFFFFFFFFFFFFFFFFFFFFFFFFFFFF
          FFFFFFFFFFFF000000000000000000FFFFFFFFFFFFFFFFFFFFFFFF0000000000
          00FFFFFFFFFFFFFFFFFFFFFFFFFFFFFFFFFFFFFFFFFFFFFFFF00000000000000
          0000FFFFFFFFFFFF000000000000FFFFFFFFFFFFFFFFFFFFFFFFFFFFFFFFFFFF
          FFFFFFFFFFFFFFFFFFFFFFFF000000000000000000000000000000FFFFFFFFFF
          FFFFFFFFFFFFFFFFFFFFFFFFFFFFFFFFFFFFFFFFFFFFFFFFFFFFFFFFFFFFFF00
          0000000000000000FFFFFFFFFFFFFFFFFFFFFFFFFFFFFFFFFFFFFFFFFFFFFFFF
          FFFFFFFFFFFFFFFFFFFFFFFF000000000000000000000000000000FFFFFFFFFF
          FFFFFFFFFFFFFFFFFFFFFFFFFFFFFFFFFFFFFFFFFFFFFFFFFF00000000000000
          0000FFFFFFFFFFFF000000000000FFFFFFFFFFFFFFFFFFFFFFFFFFFFFFFFFFFF
          FFFFFF000000000000000000000000FFFFFFFFFFFFFFFFFFFFFFFF0000000000
          00FFFFFFFFFFFFFFFFFFFFFFFFFFFFFF000000000000000000000000FFFFFFFF
          FFFFFFFFFFFFFFFFFFFFFFFFFFFF000000000000FFFFFFFFFFFFFFFFFFFFFFFF
          000000000000000000FFFFFFFFFFFFFFFFFFFFFFFFFFFFFFFFFFFFFFFFFFFFFF
          FFFFFFFF000000FFFFFFFFFFFFFFFFFFFFFFFFFFFFFFFFFFFFFFFFFFFFFFFFFF
          FFFFFFFFFFFFFFFFFFFFFFFFFFFFFFFFFFFFFFFFFFFFFFFFFFFF}
        ParentShowHint = False
        ShowHint = True
        OnClick = sbDeleteUnitClick
        ExplicitLeft = 107
        ExplicitTop = 6
      end
    end
    object tvLayerGroups: TTreeView
      Left = 1
      Top = 1
      Width = 135
      Height = 270
      Align = alClient
      HideSelection = False
      Indent = 19
      MultiSelect = True
      ReadOnly = True
      StateImages = TreeViewImageList
      TabOrder = 1
      OnChange = tvLayerGroupsChange
      ExplicitHeight = 244
    end
  end
  object ImageList1: TImageList
    Left = 16
    Top = 16
    Bitmap = {
      494C010104000500040010001000FFFFFFFFFF10FFFFFFFFFFFFFFFF424D3600
      0000000000003600000028000000400000002000000001002000000000000020
      0000000000000000000000000000000000000000000000000000000000000000
      0000000000000000000000000000000000000000000000000000000000000000
      0000000000000000000000000000000000000000000000000000000000000000
      0000000000000000000000000000000000000000000000000000000000000000
      0000000000000000000000000000000000000000000000000000000000000000
      0000000000000000000000000000000000000000000000000000000000000000
      0000000000000000000000000000000000000000000000000000000000000000
      0000000000000000000000000000000000000000000000000000000000000000
      0000000000000000000000000000000000000000000000000000000000000000
      0000000000000000000000000000000000000000000000000000000000000000
      0000000000000000000000000000000000000000000000000000000000000000
      0000000000000000000000000000000000000000000000000000000000000000
      0000000000000000000000000000000000000000000000000000000000000000
      0000000000000000000000000000000000000000000000000000000000000000