inherited frmModflowPackages: TfrmModflowPackages
  HelpType = htKeyword
  HelpKeyword = 'MODFLOW_Packages_Dialog_Box'
  Caption = 'MODFLOW Packages and Programs'
  ClientHeight = 544
  ClientWidth = 792
  OnDestroy = FormDestroy
  OnResize = FormResize
  ExplicitTop = -8
  ExplicitWidth = 800
  ExplicitHeight = 578
  PixelsPerInch = 96
  TextHeight = 18
  object JvNetscapeSplitter1: TJvNetscapeSplitter
    Left = 177
    Top = 0
    Height = 503
    Align = alLeft
    MinSize = 1
    Maximized = False
    Minimized = False
    ButtonCursor = crDefault
    ExplicitLeft = 121
    ExplicitTop = -14
    ExplicitHeight = 252
  end
  object tvPackages: TTreeView
    Left = 0
    Top = 0
    Width = 177
    Height = 503
    Align = alLeft
    HideSelection = False
    Indent = 19
    ReadOnly = True
    StateImages = ilCheckImages
    TabOrder = 0
    OnChange = tvPackagesChange
    OnMouseUp = tvPackagesMouseUp
  end
  object jvplPackages: TJvPageList
    Left = 187
    Top = 0
    Width = 605
    Height = 503
    ActivePage = jvspUZF
    PropagateEnable = False
    Align = alClient
    OnChange = jvplPackagesChange
    object jvspLPF: TJvStandardPage
      Left = 0
      Top = 0
      Width = 605
      Height = 503
      HelpType = htKeyword
      HelpKeyword = 'LPF_Layer_Property_Flow_Package'
      Caption = 'LPF (Layer Property Flow)'
      object JvNetscapeSplitter2: TJvNetscapeSplitter
        Left = 121
        Top = 291
        Height = 212
        Align = alLeft
        MinSize = 1
        Maximized = False
        Minimized = False
        ButtonCursor = crDefault
        ExplicitLeft = 256
        ExplicitTop = 96
        ExplicitHeight = 100
      end
      object JvNetscapeSplitter3: TJvNetscapeSplitter
        Left = 0
        Top = 281
        Width = 605
        Height = 10
        Cursor = crVSplit
        Align = alTop
        MinSize = 1
        Maximized = False
        Minimized = False
        ButtonCursor = crDefault
        ExplicitLeft = 131
        ExplicitWidth = 222
      end
      inline frameLpfParameterDefinition: TframeArrayParameterDefinition
        Left = 131
        Top = 291
        Width = 474
        Height = 212
        Align = alClient
        Enabled = False
        TabOrder = 0
        TabStop = True
        ExplicitLeft = 131
        ExplicitTop = 291
        ExplicitWidth = 474
        ExplicitHeight = 212
        inherited pnlParameterCount: TPanel
          Top = 164
          Width = 474
          ExplicitTop = 164
          ExplicitWidth = 474
          inherited lblNumParameters: TLabel
            Width = 156
            Height = 18
            ExplicitWidth = 156
            ExplicitHeight = 18
          end
          inherited btnDelete: TBitBtn
            Left = 380
            Top = 6
            Enabled = True
            OnClick = frameParameterDefinition_btnDeleteClick
            ExplicitLeft = 380
            ExplicitTop = 6
          end
          inherited seNumberOfParameters: TJvSpinEdit
            Height = 26
            Enabled = True
            OnChange = frameParameterDefinition_seNumberOfParametersChange
            ExplicitHeight = 26
          end
        end
        inherited dgParameters: TRbwDataGrid4
          Width = 468
          Height = 101
          Enabled = True
          Columns = <
            item
              AutoAdjustRowHeights = False
              ButtonCaption = '...'
              ButtonFont.Charset = DEFAULT_CHARSET
              ButtonFont.Color = clWindowText
              ButtonFont.Height = -11
              ButtonFont.Name = 'Tahoma'
              ButtonFont.Style = []
              ButtonUsed = False
              ButtonWidth = 20
              CheckMax = False
              CheckMin = False
              ComboUsed = False
              Format = rcf4String
              LimitToList = False
              MaxLength = 10
              ParentButtonFont = False
              WordWrapCaptions = False
              WordWrapCells = False
              AutoAdjustColWidths = True
            end
            item
              AutoAdjustRowHeights = False
              ButtonCaption = '...'
              ButtonFont.Charset = DEFAULT_CHARSET
              ButtonFont.Color = clWindowText
              ButtonFont.Height = -11
              ButtonFont.Name = 'Tahoma'
              ButtonFont.Style = []
              ButtonUsed = False
              ButtonWidth = 20
              CheckMax = False
              CheckMin = False
              ComboUsed = False
              Format = rcf4Real
              LimitToList = False
              MaxLength = 0
              ParentButtonFont = False
              WordWrapCaptions = False
              WordWrapCells = False
              AutoAdjustColWidths = True
            end
            item
              AutoAdjustRowHeights = False
              ButtonCaption = '...'
              ButtonFont.Charset = DEFAULT_CHARSET
              ButtonFont.Color = clWindowText
              ButtonFont.Height = -11
              ButtonFont.Name = 'Tahoma'
              ButtonFont.Style = []
              ButtonUsed = False
              ButtonWidth = 20
              CheckMax = False
              CheckMin = False
              ComboUsed = False
              Format = rcf4Boolean
              LimitToList = False
              MaxLength = 0
              ParentButtonFont = False
              WordWrapCaptions = False
              WordWrapCells = False
              AutoAdjustColWidths = True
            end
            item
              AutoAdjustRowHeights = False
              ButtonCaption = '...'
              ButtonFont.Charset = DEFAULT_CHARSET
              ButtonFont.Color = clWindowText
              ButtonFont.Height = -11
              ButtonFont.Name = 'Tahoma'
              ButtonFont.Style = []
              ButtonUsed = False
              ButtonWidth = 20
              CheckMax = False
              CheckMin = False
              ComboUsed = False
              Format = rcf4Boolean
              LimitToList = False
              MaxLength = 0
              ParentButtonFont = False
              WordWrapCaptions = False
              WordWrapCells = False
              AutoAdjustColWidths = True
            end>
          ExplicitLeft = 3
          ExplicitTop = 60
          ExplicitWidth = 468
          ExplicitHeight = 101
        end
        inherited pnlTop: TPanel
          Width = 474
          ExplicitWidth = 474
          inherited lblParamValue: TLabel
            Width = 102
            Height = 18
            ExplicitWidth = 102
            ExplicitHeight = 18
          end
          inherited rdeParamValue: TRbwDataEntry
            ItemHeight = 18
          end
        end
      end
      object tvLpfParameterTypes: TTreeView
        Left = 0
        Top = 291
        Width = 121
        Height = 212
        Align = alLeft
        Enabled = False
        HideSelection = False
        Indent = 19
        ReadOnly = True
        TabOrder = 1
        OnChange = tvLpfParameterTypesChange
      end
      inline framePkgLPF: TframePackageLpf
        Left = 0
        Top = 0
        Width = 605
        Height = 281
        Align = alTop
        TabOrder = 2
        TabStop = True
        ExplicitWidth = 605
        ExplicitHeight = 281
        inherited lblComments: TLabel
          Width = 76
          Height = 18
          ExplicitWidth = 76
          ExplicitHeight = 18
        end
        inherited lblPackage: TLabel
          Width = 78
          Height = 18
          ExplicitWidth = 78
          ExplicitHeight = 18
        end
        inherited memoComments: TMemo
          Width = 574
          ExplicitWidth = 574
        end
        inherited rdgOptions: TRbwDataGrid4
          Width = 577
          ExplicitWidth = 577
        end
        inherited rcSelectionController: TRbwController
          ControlList = <
            item
              Control = framePkgLPF.lblComments
            end
            item
              Control = framePkgLPF.memoComments
            end
            item
              Control = framePkgLPF.rdgOptions
            end
            item
              Control = frameLpfParameterDefinition
            end
            item
              Control = tvLpfParameterTypes
            end>
        end
      end
    end
    object jvspHUF: TJvStandardPage
      Left = 0
      Top = 0
      Width = 605
      Height = 503
      HelpType = htKeyword
      HelpKeyword = 'HUF2_Hydrogeologic_Unit_Flow'
      Caption = 'jvspHUF'
      object JvNetscapeSplitter4: TJvNetscapeSplitter
        Left = 0
        Top = 275
        Width = 605
        Height = 10
        Cursor = crVSplit
        Align = alTop
        MinSize = 1
        Maximized = False
        Minimized = False
        ButtonCursor = crDefault
        ExplicitTop = 204
      end
      object JvNetscapeSplitter5: TJvNetscapeSplitter
        Left = 121
        Top = 285
        Height = 218
        Align = alLeft
        MinSize = 1
        Maximized = False
        Minimized = False
        ButtonCursor = crDefault
        ExplicitLeft = 256
        ExplicitTop = 96
        ExplicitHeight = 100
      end
      inline framePkgHuf: TframePackageHuf
        Left = 0
        Top = 0
        Width = 605
        Height = 275
        Align = alTop
        TabOrder = 0
        TabStop = True
        ExplicitWidth = 605
        DesignSize = (
          605
          275)
        inherited lblComments: TLabel
          Width = 76
          Height = 18
          ExplicitWidth = 76
          ExplicitHeight = 18
        end
        inherited lblPackage: TLabel
          Width = 78
          Height = 18
          ExplicitWidth = 78
          ExplicitHeight = 18
        end
        inherited memoComments: TMemo
          Width = 574
          ExplicitWidth = 574
        end
        inherited cbSaveHeads: TCheckBox
          Width = 409
          ExplicitWidth = 409
        end
        inherited cbSaveFlows: TCheckBox
          Width = 385
          ExplicitWidth = 385
        end
        inherited rcSelectionController: TRbwController
          ControlList = <
            item
              Control = framePkgHuf.lblComments
            end
            item
              Control = framePkgHuf.memoComments
            end
            item
              Control = framePkgHuf.cbSaveHeads
            end
            item
              Control = framePkgHuf.cbSaveFlows
            end
            item
              Control = frameHufParameterDefinition
            end
            item
              Control = tvHufParameterTypes
            end>
          OnEnabledChange = framePkgHufrcSelectionControllerEnabledChange
        end
      end
      object tvHufParameterTypes: TTreeView
        Left = 0
        Top = 285
        Width = 121
        Height = 218
        Align = alLeft
        Enabled = False
        HideSelection = False
        Indent = 19
        ReadOnly = True
        TabOrder = 1
        OnChange = tvHufParameterTypesChange
      end
      inline frameHufParameterDefinition: TframeListParameterDefinition
        Left = 131
        Top = 285
        Width = 474
        Height = 218
        Align = alClient
        Enabled = False
        TabOrder = 2
        TabStop = True
        ExplicitLeft = 131
        ExplicitTop = 285
        ExplicitWidth = 474
        ExplicitHeight = 218
        inherited pnlParameterCount: TPanel
          Top = 170
          Width = 474
          ExplicitTop = 170
          ExplicitWidth = 474
          inherited lblNumParameters: TLabel
            Width = 156
            Height = 18
            ExplicitWidth = 156
            ExplicitHeight = 18
          end
          inherited btnDelete: TBitBtn
            Left = 386
            Enabled = True
            OnClick = frameParameterDefinition_btnDeleteClick
            ExplicitLeft = 386
          end
          inherited seNumberOfParameters: TJvSpinEdit
            Height = 26
            OnChange = frameParameterDefinition_seNumberOfParametersChange
            ExplicitHeight = 26
          end
        end
        inherited dgParameters: TRbwDataGrid4
          Width = 468
          Height = 164
          Enabled = True
          ExplicitLeft = 3
          ExplicitTop = 3
          ExplicitWidth = 468
          ExplicitHeight = 164
        end
      end
    end
    object jvspCHD: TJvStandardPage
      Left = 0
      Top = 0
      Width = 605
      Height = 503
      HelpType = htKeyword
      HelpKeyword = 'CHD_Time_Variant_Specified_Head'
      Caption = 'CHD (Time-Variant Specified-Head Package)'
      inline framePkgCHD: TframePackage
        Left = 0
        Top = 0
        Width = 605
        Height = 161
        Align = alTop
        TabOrder = 0
        TabStop = True
        ExplicitWidth = 605
        inherited lblComments: TLabel
          Width = 76
          Height = 18
          Margins.Bottom = 0
          ExplicitWidth = 76
          ExplicitHeight = 18
        end
        inherited lblPackage: TLabel
          Width = 78
          Height = 18
          Margins.Bottom = 0
          ExplicitWidth = 78
          ExplicitHeight = 18
        end
        inherited memoComments: TMemo
          Width = 574
          ExplicitWidth = 574
        end
        inherited rcSelectionController: TRbwController
          ControlList = <
            item
              Control = framePkgCHD.lblComments
            end
            item
              Control = framePkgCHD.memoComments
            end
            item
              Control = frameChdParameterDefinition
            end>
        end
      end
      inline frameChdParameterDefinition: TframeListParameterDefinition
        Left = 0
        Top = 161
        Width = 605
        Height = 342
        Align = alClient
        Enabled = False
        TabOrder = 1
        TabStop = True
        ExplicitTop = 161
        ExplicitWidth = 605
        ExplicitHeight = 342
        inherited pnlParameterCount: TPanel
          Top = 294
          Width = 605
          ExplicitTop = 294
          ExplicitWidth = 605
          inherited lblNumParameters: TLabel
            Width = 156
            Height = 18
            ExplicitWidth = 156
            ExplicitHeight = 18
          end
          inherited btnDelete: TBitBtn
            Left = 517
            OnClick = frameParameterDefinition_btnDeleteClick
            ExplicitLeft = 517
          end
          inherited seNumberOfParameters: TJvSpinEdit
            Height = 26
            OnChange = frameParameterDefinition_seNumberOfParametersChange
            ExplicitHeight = 26
          end
        end
        inherited dgParameters: TRbwDataGrid4
          Width = 599
          Height = 288
          ExplicitLeft = 3
          ExplicitTop = 3
          ExplicitWidth = 599
          ExplicitHeight = 288
        end
      end
    end
    object jvspGHB: TJvStandardPage
      Left = 0
      Top = 0
      Width = 605
      Height = 503
      HelpType = htKeyword
      HelpKeyword = 'GHB_General_Head_Boundary_Package'
      Caption = 'GHB (General Head Boundary)'
      inline framePkgGHB: TframePackage
        Left = 0
        Top = 0
        Width = 605
        Height = 161
        Align = alTop
        TabOrder = 0
        TabStop = True
        ExplicitWidth = 605
        inherited lblComments: TLabel
          Width = 76
          Height = 18
          Margins.Bottom = 0
          ExplicitWidth = 76
          ExplicitHeight = 18
        end
        inherited lblPackage: TLabel
          Width = 78
          Height = 18
          Margins.Bottom = 0
          ExplicitWidth = 78
          ExplicitHeight = 18
        end
        inherited memoComments: TMemo
          Width = 574
          ExplicitWidth = 574
        end
        inherited rcSelectionController: TRbwController
          ControlList = <
            item
              Control = framePkgGHB.lblComments
            end
            item
              Control = framePkgGHB.memoComments
            end
            item
              Control = frameGhbParameterDefinition
            end>
        end
      end
      inline frameGhbParameterDefinition: TframeListParameterDefinition
        Left = 0
        Top = 161
        Width = 605
        Height = 342
        Align = alClient
        Enabled = False
        TabOrder = 1
        TabStop = True
        ExplicitTop = 161
        ExplicitWidth = 605
        ExplicitHeight = 342
        inherited pnlParameterCount: TPanel
          Top = 294
          Width = 605
          ExplicitTop = 294
          ExplicitWidth = 605
          inherited lblNumParameters: TLabel
            Width = 156
            Height = 18
            ExplicitWidth = 156
            ExplicitHeight = 18
          end
          inherited btnDelete: TBitBtn
            Left = 517
            OnClick = frameParameterDefinition_btnDeleteClick
            ExplicitLeft = 517
          end
          inherited seNumberOfParameters: TJvSpinEdit
            Height = 26
            OnChange = frameParameterDefinition_seNumberOfParametersChange
            ExplicitHeight = 26
          end
        end
        inherited dgParameters: TRbwDataGrid4
          Width = 599
          Height = 288
          ExplicitLeft = 3
          ExplicitTop = 3
          ExplicitWidth = 599
          ExplicitHeight = 288
        end
      end
    end
    object jvspPCG: TJvStandardPage
      Left = 0
      Top = 0
      Width = 605
      Height = 503
      HelpType = htKeyword
      HelpKeyword = 'PCG_Preconditioned_Conjugate_Gradiant'
      Caption = 'PCG (Preconditioned Conjugate-Gradient)'
      inline framePCG: TframePCG
        Left = 0
        Top = 0
        Width = 605
        Height = 503
        Align = alClient
        Anchors = [akLeft, akTop, akBottom]
        TabOrder = 0
        TabStop = True
        ExplicitWidth = 605
        ExplicitHeight = 503
        DesignSize = (
          605
          503)
        inherited lblComments: TLabel
          Width = 76
          Height = 18
          ExplicitWidth = 76
          ExplicitHeight = 18
        end
        inherited lblPackage: TLabel
          Width = 78
          Height = 18
          ExplicitWidth = 78
          ExplicitHeight = 18
        end
        inherited memoComments: TMemo
          Width = 584
          Height = 132
          ExplicitWidth = 584
          ExplicitHeight = 132
        end
        inherited gpPCG: TGridPanel
          Top = 202
          Width = 589
          Height = 301
          Anchors = [akLeft, akRight, akBottom]
          BevelOuter = bvNone
          ControlCollection = <
            item
              Column = 0
              Control = framePCG.lblPCGMaxOuter
              Row = 0
            end
            item
              Column = 1
              Control = framePCG.rdePCGMaxOuter
              Row = 0
            end
            item
              Column = 0
              Control = framePCG.lblPCGMaxInner
              Row = 1
            end
            item
              Column = 1
              Control = framePCG.rdePCGMaxInner
              Row = 1
            end
            item
              Column = 0
              Control = framePCG.lblPCGMethod
              Row = 2
            end
            item
              Column = 1
              Control = framePCG.comboPCGPrecondMeth
              Row = 2
            end
            item
              Column = 0
              Control = framePCG.lblPCGMaxChangeHead
              Row = 3
            end
            item
              Column = 1
              Control = framePCG.rdePCGMaxHeadChange
              Row = 3
            end
            item
              Column = 0
              Control = framePCG.lblPCGMaxResidual
              Row = 4
            end
            item
              Column = 1
              Control = framePCG.rdePCGMaxResChange
              Row = 4
            end
            item
              Column = 0
              Control = framePCG.lblPCGRelaxation
              Row = 5
            end
            item
              Column = 1
              Control = framePCG.rdePCGRelax
              Row = 5
            end
            item
              Column = 0
              Control = framePCG.lblPCGMaxEigen
              Row = 6
            end
            item
              Column = 1
              Control = framePCG.comboPCGEigenValue
              Row = 6
            end
            item
              Column = 0
              Control = framePCG.lblPCGPrintInterval
              Row = 7
            end
            item
              Column = 1
              Control = framePCG.rdePCGPrintInt
              Row = 7
            end
            item
              Column = 0
              Control = framePCG.lblPCGPrintControl
              Row = 8
            end
            item
              Column = 1
              Control = framePCG.comboPCGPrint
              Row = 8
            end
            item
              Column = 0
              Control = framePCG.lblPCGDampingFactor
              Row = 9
            end
            item
              Column = 1
              Control = framePCG.rdePCGDamp
              Row = 9
            end
            item
              Column = 0
              Control = framePCG.lblPCGDampPcgT
              Row = 10
            end
            item
              Column = 1
              Control = framePCG.rdePCGDampPcgT
              Row = 10
            end>
          RowCollection = <
            item
              Value = 9.090596132233804000
            end
            item
              Value = 9.090596132233804000
            end
            item
              Value = 9.090596132233804000
            end
            item
              Value = 9.090505226272480000
            end
            item
              Value = 9.090573405743472000
            end
            item
              Value = 9.090573405743474000
            end
            item
              Value = 9.090537043449851000
            end
            item
              Value = 9.093295381593441000
            end
            item
              Value = 9.090909107438018000
            end
            item
              Value = 9.090909016528926000
            end
            item
              Value = 9.090909016528926000
            end>
          ExplicitTop = 202
          ExplicitWidth = 589
          ExplicitHeight = 301
          inherited lblPCGMaxOuter: TLabel
            Left = 3
            Top = 6
            Width = 315
            Height = 21
            ExplicitLeft = 3
            ExplicitTop = 6
            ExplicitWidth = 289
            ExplicitHeight = 18
          end
          inherited rdePCGMaxOuter: TRbwDataEntry
            Left = 324
            Top = 3
            Width = 262
            Height = 21
            ItemHeight = 18
            ExplicitLeft = 324
            ExplicitTop = 3
            ExplicitWidth = 262
            ExplicitHeight = 21
          end
          inherited lblPCGMaxInner: TLabel
            Left = 3
            Top = 33
            Width = 315
            Height = 21
            ExplicitLeft = 3
            ExplicitTop = 33
            ExplicitWidth = 273
            ExplicitHeight = 18
          end
          inherited rdePCGMaxInner: TRbwDataEntry
            Left = 324
            Top = 30
            Width = 262
            Height = 21
            ItemHeight = 18
            ExplicitLeft = 324
            ExplicitTop = 30
            ExplicitWidth = 262
            ExplicitHeight = 21
          end
          inherited lblPCGMethod: TLabel
            Left = 3
            Top = 61
            Width = 315
            Height = 20
            ExplicitLeft = 3
            ExplicitTop = 61
            ExplicitWidth = 296
            ExplicitHeight = 18
          end
          inherited comboPCGPrecondMeth: TJvImageComboBox
            Left = 324
            Top = 57
            Width = 262
            Height = 26
            DroppedWidth = 266
            ItemHeight = 18
            ExplicitLeft = 324
            ExplicitTop = 57
            ExplicitWidth = 262
            ExplicitHeight = 26
          end
          inherited lblPCGMaxChangeHead: TLabel
            Left = 3
            Top = 87
            Width = 315
            Height = 21
            ExplicitLeft = 3
            ExplicitTop = 87
            ExplicitWidth = 261
            ExplicitHeight = 18
          end
          inherited rdePCGMaxHeadChange: TRbwDataEntry
            Left = 324
            Top = 84
            Width = 262
            Height = 21
            ItemHeight = 18
            ExplicitLeft = 324
            ExplicitTop = 84
            ExplicitWidth = 262
            ExplicitHeight = 21
          end
          inherited lblPCGMaxResidual: TLabel
            Left = 3
            Top = 114
            Width = 315
            Height = 21
            ExplicitLeft = 3
            ExplicitTop = 114
            ExplicitWidth = 210
            ExplicitHeight = 18
          end
          inherited rdePCGMaxResChange: TRbwDataEntry
            Left = 324
            Top = 111
            Width = 262
            Height = 21
            ItemHeight = 18
            ExplicitLeft = 324
            ExplicitTop = 111
            ExplicitWidth = 262
            ExplicitHeight = 21
          end
          inherited lblPCGRelaxation: TLabel
            Left = 3
            Top = 141
            Width = 315
            Height = 21
            ExplicitLeft = 3
            ExplicitTop = 141
            ExplicitWidth = 220
            ExplicitHeight = 18
          end
          inherited rdePCGRelax: TRbwDataEntry
            Left = 324
            Top = 138
            Width = 262
            Height = 21
            ItemHeight = 18
            ExplicitLeft = 324
            ExplicitTop = 138
            ExplicitWidth = 262
            ExplicitHeight = 21
          end
          inherited lblPCGMaxEigen: TLabel
            Left = 3
            Top = 169
            Width = 315
            Height = 20
            ExplicitLeft = 3
            ExplicitTop = 169
            ExplicitWidth = 320
            ExplicitHeight = 18
          end
          inherited comboPCGEigenValue: TJvImageComboBox
            Left = 324
            Top = 165
            Width = 262
            Height = 26
            DroppedWidth = 266
            ItemHeight = 18
            ExplicitLeft = 324
            ExplicitTop = 165
            ExplicitWidth = 262
            ExplicitHeight = 26
          end
          inherited lblPCGPrintInterval: TLabel
            Left = 3
            Top = 195
            Width = 315
            Height = 21
            ExplicitLeft = 3
            ExplicitTop = 195
            ExplicitWidth = 184
            ExplicitHeight = 18
          end
          inherited rdePCGPrintInt: TRbwDataEntry
            Left = 324
            Top = 192
            Width = 262
            Height = 21
            ItemHeight = 18
            ExplicitLeft = 324
            ExplicitTop = 192
            ExplicitWidth = 262
            ExplicitHeight = 21
          end
          inherited lblPCGPrintControl: TLabel
            Left = 3
            Top = 223
            Width = 315
            Height = 20
            ExplicitLeft = 3
            ExplicitTop = 223
            ExplicitWidth = 189
            ExplicitHeight = 18
          end
          inherited comboPCGPrint: TJvImageComboBox
            Left = 324
            Top = 219
            Width = 262
            Height = 26
            DroppedWidth = 266
            ItemHeight = 18
            ExplicitLeft = 324
            ExplicitTop = 219
            ExplicitWidth = 262
            ExplicitHeight = 26
          end
          inherited lblPCGDampingFactor: TLabel
            Left = 3
            Top = 249
            Width = 315
            Height = 21
            Caption = 'Steady-state damping factor (DAMPPCG):'
            ExplicitLeft = 3
            ExplicitTop = 249
            ExplicitWidth = 296
            ExplicitHeight = 18
          end
          inherited rdePCGDamp: TRbwDataEntry
            Left = 324
            Top = 246
            Width = 262
            Height = 21
            ItemHeight = 18
            ExplicitLeft = 324
            ExplicitTop = 246
            ExplicitWidth = 262
            ExplicitHeight = 21
          end
          inherited lblPCGDampPcgT: TLabel
            Left = 3
            Top = 276
            Width = 315
            Height = 25
            ExplicitLeft = 3
            ExplicitTop = 276
            ExplicitWidth = 281
            ExplicitHeight = 18
          end
          inherited rdePCGDampPcgT: TRbwDataEntry
            Left = 324
            Top = 273
            Width = 262
            Height = 25
            ItemHeight = 18
            ExplicitLeft = 324