inherited frmModflowPackages: TfrmModflowPackages
  HelpType = htKeyword
  HelpKeyword = 'MODFLOW_Packages_Dialog_Box'
  Caption = 'MODFLOW Packages and Programs'
  ClientHeight = 566
  ClientWidth = 792
  OnResize = FormResize
  ExplicitWidth = 800
  ExplicitHeight = 600
  PixelsPerInch = 96
  TextHeight = 18
  object JvNetscapeSplitter1: TJvNetscapeSplitter
    Left = 177
    Top = 0
    Height = 525
    Align = alLeft
    MinSize = 1
    Maximized = False
    Minimized = False
    ButtonCursor = crDefault
    ExplicitLeft = 121
    ExplicitTop = -14
    ExplicitHeight = 252
  end
  object jvplPackages: TJvPageList
    Left = 187
    Top = 0
    Width = 605
    Height = 525
    ActivePage = jvspDRN
    PropagateEnable = False
    Align = alClient
    OnChange = jvplPackagesChange
    object jvspLPF: TJvStandardPage
      Left = 0
      Top = 0
      Width = 605
      Height = 525
      HelpType = htKeyword
      HelpKeyword = 'LPF_Layer_Property_Flow_Package'
      Caption = 'LPF (Layer Property Flow)'
      object splitLprParameter: TJvNetscapeSplitter
        Left = 121
        Top = 291
        Height = 234
        Align = alLeft
        MinSize = 1
        Maximized = False
        Minimized = False
        ButtonCursor = crDefault
        ExplicitLeft = 256
        ExplicitTop = 96
        ExplicitHeight = 100
      end
      object JvNetscapeSplitter3: TJvNetscapeSplitter
        Left = 0
        Top = 281
        Width = 605
        Height = 10
        Cursor = crVSplit
        Align = alTop
        MinSize = 1
        Maximized = False
        Minimized = False
        ButtonCursor = crDefault
        ExplicitLeft = -4
        ExplicitTop = 283
      end
      inline frameLpfParameterDefinition: TframeArrayParameterDefinition
        Left = 131
        Top = 291
        Width = 474
        Height = 234
        Align = alClient
        Enabled = False
        TabOrder = 2
        TabStop = True
        ExplicitLeft = 131
        ExplicitTop = 291
        ExplicitWidth = 474
        ExplicitHeight = 234
        inherited pnlParameterCount: TPanel
          Top = 186
          Width = 474
          ExplicitTop = 186
          ExplicitWidth = 474
          inherited lblNumParameters: TLabel
            Width = 156
            Height = 18
            ExplicitWidth = 156
            ExplicitHeight = 18
          end
          inherited btnDelete: TBitBtn
            Left = 361
            Top = 9
            Enabled = True
            TabOrder = 1
            OnClick = frameParameterDefinition_btnDeleteClick
            ExplicitLeft = 361
            ExplicitTop = 9
          end
          inherited seNumberOfParameters: TJvSpinEdit
            Height = 26
            Enabled = True
            TabOrder = 0
            OnChange = frameParameterDefinition_seNumberOfParametersChange
            ExplicitHeight = 26
          end
        end
        inherited dgParameters: TRbwDataGrid4
          Width = 468
          Height = 123
          Enabled = True
          Columns = <
            item
              AutoAdjustRowHeights = False
              ButtonCaption = '...'
              ButtonFont.Charset = DEFAULT_CHARSET
              ButtonFont.Color = clWindowText
              ButtonFont.Height = -11
              ButtonFont.Name = 'Tahoma'
              ButtonFont.Style = []
              ButtonUsed = False
              ButtonWidth = 20
              CheckMax = False
              CheckMin = False
              ComboUsed = False
              Format = rcf4String
              LimitToList = False
              MaxLength = 10
              ParentButtonFont = False
              WordWrapCaptions = False
              WordWrapCells = False
              CaseSensitivePicklist = False
              AutoAdjustColWidths = True
            end
            item
              AutoAdjustRowHeights = False
              ButtonCaption = '...'
              ButtonFont.Charset = DEFAULT_CHARSET
              ButtonFont.Color = clWindowText
              ButtonFont.Height = -11
              ButtonFont.Name = 'Tahoma'
              ButtonFont.Style = []
              ButtonUsed = False
              ButtonWidth = 20
              CheckMax = False
              CheckMin = False
              ComboUsed = False
              Format = rcf4Real
              LimitToList = False
              MaxLength = 0
              ParentButtonFont = False
              WordWrapCaptions = False
              WordWrapCells = False
              CaseSensitivePicklist = False
              AutoAdjustColWidths = True
            end
            item
              AutoAdjustRowHeights = False
              ButtonCaption = '...'
              ButtonFont.Charset = DEFAULT_CHARSET
              ButtonFont.Color = clWindowText
              ButtonFont.Height = -11
              ButtonFont.Name = 'Tahoma'
              ButtonFont.Style = []
              ButtonUsed = False
              ButtonWidth = 20
              CheckMax = False
              CheckMin = False
              ComboUsed = False
              Format = rcf4Boolean
              LimitToList = False
              MaxLength = 0
              ParentButtonFont = False
              WordWrapCaptions = False
              WordWrapCells = False
              CaseSensitivePicklist = False
              AutoAdjustColWidths = True
            end
            item
              AutoAdjustRowHeights = False
              ButtonCaption = '...'
              ButtonFont.Charset = DEFAULT_CHARSET
              ButtonFont.Color = clWindowText
              ButtonFont.Height = -11
              ButtonFont.Name = 'Tahoma'
              ButtonFont.Style = []
              ButtonUsed = False
              ButtonWidth = 20
              CheckMax = False
              CheckMin = False
              ComboUsed = False
              Format = rcf4Boolean
              LimitToList = False
              MaxLength = 0
              ParentButtonFont = False
              WordWrapCaptions = False
              WordWrapCells = False
              CaseSensitivePicklist = False
              AutoAdjustColWidths = True
            end>
          ExplicitWidth = 468
          ExplicitHeight = 123
        end
        inherited pnlTop: TPanel
          Width = 474
          ExplicitWidth = 474
          inherited lblParamValue: TLabel
            Width = 102
            Height = 18
            ExplicitWidth = 102
            ExplicitHeight = 18
          end
        end
      end
      object tvLpfParameterTypes: TTreeView
        Left = 0
        Top = 291
        Width = 121
        Height = 234
        Align = alLeft
        Enabled = False
        HideSelection = False
        Indent = 20
        ReadOnly = True
        TabOrder = 1
        OnChange = tvLpfParameterTypesChange
      end
      inline framePkgLPF: TframePackageLpf
        Left = 0
        Top = 0
        Width = 605
        Height = 281
        Align = alTop
        TabOrder = 0
        TabStop = True
        ExplicitWidth = 605
        ExplicitHeight = 281
        inherited lblComments: TLabel
          Width = 76
          Height = 18
          ExplicitWidth = 76
          ExplicitHeight = 18
        end
        inherited lblPackage: TLabel
          Width = 78
          Height = 18
          ExplicitWidth = 78
          ExplicitHeight = 18
        end
        inherited memoComments: TMemo
          Width = 574
          ExplicitWidth = 574
        end
        inherited rdgOptions: TRbwDataGrid4
          Width = 577
          ExplicitWidth = 577
        end
        inherited rcSelectionController: TRbwController
          ControlList = <
            item
              Control = framePkgLPF.lblComments
            end
            item
              Control = framePkgLPF.memoComments
            end
            item
              Control = framePkgLPF.rdgOptions
            end>
          OnEnabledChange = framePkgLPFrcSelectionControllerEnabledChange
        end
      end
    end
    object jvspHUF: TJvStandardPage
      Left = 0
      Top = 0
      Width = 605
      Height = 525
      HelpType = htKeyword
      HelpKeyword = 'HUF2_Hydrogeologic_Unit_Flow'
      Caption = 'jvspHUF'
      object JvNetscapeSplitter4: TJvNetscapeSplitter
        Left = 0
        Top = 275
        Width = 605
        Height = 10
        Cursor = crVSplit
        Align = alTop
        MinSize = 1
        Maximized = False
        Minimized = False
        ButtonCursor = crDefault
        ExplicitTop = 204
      end
      object JvNetscapeSplitter5: TJvNetscapeSplitter
        Left = 121
        Top = 285
        Height = 240
        Align = alLeft
        MinSize = 1
        Maximized = False
        Minimized = False
        ButtonCursor = crDefault
        ExplicitLeft = 256
        ExplicitTop = 96
        ExplicitHeight = 100
      end
      inline framePkgHuf: TframePackageHuf
        Left = 0
        Top = 0
        Width = 605
        Height = 275
        Align = alTop
        TabOrder = 0
        TabStop = True
        ExplicitWidth = 605
        DesignSize = (
          605
          275)
        inherited lblComments: TLabel
          Width = 76
          Height = 18
          ExplicitWidth = 76
          ExplicitHeight = 18
        end
        inherited lblPackage: TLabel
          Width = 78
          Height = 18
          ExplicitWidth = 78
          ExplicitHeight = 18
        end
        inherited memoComments: TMemo
          Width = 574
          ExplicitWidth = 574
        end
        inherited cbSaveHeads: TCheckBox
          Width = 409
          ExplicitWidth = 409
        end
        inherited cbSaveFlows: TCheckBox
          Width = 385
          ExplicitWidth = 385
        end
        inherited rgElevationSurfaceChoice: TRadioGroup
          Width = 313
          ExplicitWidth = 313
        end
        inherited rcSelectionController: TRbwController
          ControlList = <
            item
              Control = framePkgHuf.lblComments
            end
            item
              Control = framePkgHuf.memoComments
            end
            item
              Control = framePkgHuf.cbSaveHeads
            end
            item
              Control = framePkgHuf.cbSaveFlows
            end
            item
              Control = frameHufParameterDefinition
            end
            item
              Control = tvHufParameterTypes
            end>
          OnEnabledChange = framePkgHufrcSelectionControllerEnabledChange
        end
      end
      object tvHufParameterTypes: TTreeView
        Left = 0
        Top = 285
        Width = 121
        Height = 240
        Align = alLeft
        Enabled = False
        HideSelection = False
        Indent = 20
        ReadOnly = True
        TabOrder = 1
        OnChange = tvHufParameterTypesChange
      end
      inline frameHufParameterDefinition: TframeListParameterDefinition
        Left = 131
        Top = 285
        Width = 474
        Height = 240
        Align = alClient
        Enabled = False
        TabOrder = 2
        TabStop = True
        ExplicitLeft = 131
        ExplicitTop = 285
        ExplicitWidth = 474
        inherited pnlParameterCount: TPanel
          Width = 474
          ExplicitWidth = 474
          inherited lblNumParameters: TLabel
            Width = 156
            Height = 18
            ExplicitWidth = 156
            ExplicitHeight = 18
          end
          inherited btnDelete: TBitBtn
            Left = 361
            Top = 9
            Enabled = True
            TabOrder = 1
            OnClick = frameParameterDefinition_btnDeleteClick
            ExplicitLeft = 361
            ExplicitTop = 9
          end
          inherited seNumberOfParameters: TJvSpinEdit
            Height = 26
            TabOrder = 0
            OnChange = frameParameterDefinition_seNumberOfParametersChange
            ExplicitHeight = 26
          end
        end
        inherited dgParameters: TRbwDataGrid4
          Width = 468
          Enabled = True
          ExplicitWidth = 468
        end
      end
    end
    object jvspCHD: TJvStandardPage
      Left = 0
      Top = 0
      Width = 605
      Height = 525
      HelpType = htKeyword
      HelpKeyword = 'CHD_Time_Variant_Specified_Head'
      Caption = 'CHD (Time-Variant Specified-Head Package)'
      inline framePkgCHD: TframePackage
        Left = 0
        Top = 0
        Width = 605
        Height = 161
        Align = alTop
        TabOrder = 0
        TabStop = True
        ExplicitWidth = 605
        inherited lblComments: TLabel
          Width = 76
          Height = 18
          ExplicitWidth = 76
          ExplicitHeight = 18
        end
        inherited lblPackage: TLabel
          Width = 78
          Height = 18
          ExplicitWidth = 78
          ExplicitHeight = 18
        end
        inherited memoComments: TMemo
          Width = 574
          ExplicitWidth = 574
        end
        inherited rcSelectionController: TRbwController
          ControlList = <
            item
              Control = framePkgCHD.lblComments
            end
            item
              Control = framePkgCHD.memoComments
            end
            item
              Control = frameChdParameterDefinition
            end>
        end
      end
      inline frameChdParameterDefinition: TframeListParameterDefinition
        Left = 0
        Top = 161
        Width = 605
        Height = 364
        Align = alClient
        Enabled = False
        TabOrder = 1
        TabStop = True
        ExplicitTop = 161
        ExplicitWidth = 605
        ExplicitHeight = 364
        inherited pnlParameterCount: TPanel
          Top = 316
          Width = 605
          ExplicitTop = 316
          ExplicitWidth = 605
          inherited lblNumParameters: TLabel
            Width = 156
            Height = 18
            ExplicitWidth = 156
            ExplicitHeight = 18
          end
          inherited btnDelete: TBitBtn
            Left = 491
            Top = 9
            TabOrder = 1
            OnClick = frameParameterDefinition_btnDeleteClick
            ExplicitLeft = 491
            ExplicitTop = 9
          end
          inherited seNumberOfParameters: TJvSpinEdit
            Height = 26
            TabOrder = 0
            OnChange = frameParameterDefinition_seNumberOfParametersChange
            ExplicitHeight = 26
          end
        end
        inherited dgParameters: TRbwDataGrid4
          Width = 599
          Height = 310
          ExplicitWidth = 599
          ExplicitHeight = 310
        end
      end
    end
    object jvspGHB: TJvStandardPage
      Left = 0
      Top = 0
      Width = 605
      Height = 525
      HelpType = htKeyword
      HelpKeyword = 'GHB_General_Head_Boundary_Package'
      Caption = 'GHB (General Head Boundary)'
      inline framePkgGHB: TframePackage
        Left = 0
        Top = 0
        Width = 605
        Height = 161
        Align = alTop
        TabOrder = 0
        TabStop = True
        ExplicitWidth = 605
        inherited lblComments: TLabel
          Width = 76
          Height = 18
          ExplicitWidth = 76
          ExplicitHeight = 18
        end
        inherited lblPackage: TLabel
          Width = 78
          Height = 18
          ExplicitWidth = 78
          ExplicitHeight = 18
        end
        inherited memoComments: TMemo
          Width = 574
          ExplicitWidth = 574
        end
        inherited rcSelectionController: TRbwController
          ControlList = <
            item
              Control = framePkgGHB.lblComments
            end
            item
              Control = framePkgGHB.memoComments
            end
            item
              Control = frameGhbParameterDefinition
            end>
        end
      end
      inline frameGhbParameterDefinition: TframeListParameterDefinition
        Left = 0
        Top = 161
        Width = 605
        Height = 364
        Align = alClient
        Enabled = False
        TabOrder = 1
        TabStop = True
        ExplicitTop = 161
        ExplicitWidth = 605
        ExplicitHeight = 364
        inherited pnlParameterCount: TPanel
          Top = 316
          Width = 605
          ExplicitTop = 316
          ExplicitWidth = 605
          inherited lblNumParameters: TLabel
            Width = 156
            Height = 18
            ExplicitWidth = 156
            ExplicitHeight = 18
          end
          inherited btnDelete: TBitBtn
            Left = 491
            OnClick = frameParameterDefinition_btnDeleteClick
            ExplicitLeft = 491
          end
          inherited seNumberOfParameters: TJvSpinEdit
            Height = 26
            OnChange = frameParameterDefinition_seNumberOfParametersChange
            ExplicitHeight = 26
          end
        end
        inherited dgParameters: TRbwDataGrid4
          Width = 599
          Height = 310
          ExplicitWidth = 599
          ExplicitHeight = 310
        end
      end
    end
    object jvspPCG: TJvStandardPage
      Left = 0
      Top = 0
      Width = 605
      Height = 525
      HelpType = htKeyword
      HelpKeyword = 'PCG_Preconditioned_Conjugate_Gradiant'
      Caption = 'PCG (Preconditioned Conjugate-Gradient)'
      inline framePCG: TframePCG
        Left = 0
        Top = 0
        Width = 605
        Height = 525
        Align = alClient
        Anchors = [akLeft, akTop, akBottom]
        TabOrder = 0
        TabStop = True
        ExplicitWidth = 605
        ExplicitHeight = 525
        DesignSize = (
          605
          525)
        inherited lblComments: TLabel
          Width = 76
          Height = 18
          ExplicitWidth = 76
          ExplicitHeight = 18
        end
        inherited lblPackage: TLabel
          Width = 78
          Height = 18
          ExplicitWidth = 78
          ExplicitHeight = 18
        end
        inherited lblPCGMaxOuter: TLabel
          Width = 289
          Height = 18
          ExplicitWidth = 289
          ExplicitHeight = 18
        end
        inherited lblPCGMaxInner: TLabel
          Width = 273
          Height = 18
          ExplicitWidth = 273
          ExplicitHeight = 18
        end
        inherited lblPCGMethod: TLabel
          Width = 296
          Height = 18
          ExplicitWidth = 296
          ExplicitHeight = 18
        end
        inherited lblPCGMaxChangeHead: TLabel
          Width = 261
          Height = 18
          ExplicitWidth = 261
          ExplicitHeight = 18
        end
        inherited lblPCGMaxResidual: TLabel
          Width = 210
          Height = 18
          ExplicitWidth = 210
          ExplicitHeight = 18
        end
        inherited lblPCGRelaxation: TLabel
          Width = 220
          Height = 18
          ExplicitWidth = 220
          ExplicitHeight = 18
        end
        inherited lblPCGMaxEigen: TLabel
          Width = 320
          Height = 18
          ExplicitWidth = 320
          ExplicitHeight = 18
        end
        inherited lblPCGPrintInterval: TLabel
          Width = 184
          Height = 18
          ExplicitWidth = 184
          ExplicitHeight = 18
        end
        inherited lblPCGPrintControl: TLabel
          Width = 189
          Height = 18
          ExplicitWidth = 189
          ExplicitHeight = 18
        end
        inherited lblPCGDampingFactor: TLabel
          Width = 207
          Height = 18
          ExplicitWidth = 207
          ExplicitHeight = 18
        end
        inherited lblPCGDampPcgT: TLabel
          Width = 281
          Height = 18
          ExplicitWidth = 281
          ExplicitHeight = 18
        end
        inherited memoComments: TMemo
          Width = 584
          ExplicitWidth = 584
        end
        inherited comboPCGPrecondMeth: TJvImageComboBox
          Height = 26
          ExplicitHeight = 26
        end
        inherited comboPCGEigenValue: TJvImageComboBox
          Height = 26
          ExplicitHeight = 26
        end
        inherited comboPCGPrint: TJvImageComboBox
          Height = 26
          ExplicitHeight = 26
        end
        inherited rcSelectionController: TRbwController
          ControlList = <
            item
              Control = framePCG.lblComments
            end
            item
              Control = framePCG.memoComments
            end
            item
              Control = framePCG.comboPCGPrecondMeth
            end
            item
              Control = framePCG.comboPCGPrint
            end
            item
              Control = framePCG.rdePCGDamp
            end
            item
              Control = framePCG.rdePCGMaxHeadChange
            end
            item
              Control = framePCG.rdePCGMaxInner
            end
            item
              Control = framePCG.rdePCGMaxOuter
            end
            item
              Control = framePCG.rdePCGMaxResChange
            end
            item
              Control = framePCG.rdePCGPrintInt
            end
            item
              Control = framePCG.rdePCGDampPcgT
            end
            item
              Control = framePCG.rbIHCOFADD_0
            end
            item
              Control = framePCG.rbIHCOFADD_1
            end>
        end
      end
    end
    object jvspWEL: TJvStandardPage
      Left = 0
      Top = 0
      Width = 605
      Height = 525
      HelpType = htKeyword
      HelpKeyword = 'WEL_Well_Package_Pane'
      Caption = 'jvspWEL'
      inline framePkgWEL: TframePackage
        Left = 0
        Top = 0
        Width = 605
        Height = 161
        Align = alTop
        TabOrder = 0
        TabStop = True
        ExplicitWidth = 605
        inherited lblComments: TLabel
          Width = 76
          Height = 18
          ExplicitWidth = 76
          ExplicitHeight = 18
        end
        inherited lblPackage: TLabel
          Width = 78
          Height = 18
          ExplicitWidth = 78
          ExplicitHeight = 18
        end
        inherited memoComments: TMemo
          Width = 574
          ExplicitWidth = 574
        end
        inherited rcSelectionController: TRbwController
          ControlList = <
            item
              Control = framePkgWEL.lblComments
            end
            item
              Control = framePkgWEL.memoComments
            end
            item
              Control = frameWelParameterDefinition
            end>
        end
      end
      inline frameWelParameterDefinition: TframeListParameterDefinition
        Left = 0
        Top = 161
        Width = 605
        Height = 364
        Align = alClient
        Enabled = False
        TabOrder = 1
        TabStop = True
        ExplicitTop = 161
        ExplicitWidth = 605
        ExplicitHeight = 364
        inherited pnlParameterCount: TPanel
          Top = 316
          Width = 605
          ExplicitTop = 316
          ExplicitWidth = 605
          inherited lblNumParameters: TLabel
            Width = 156
            Height = 18
            ExplicitWidth = 156
            ExplicitHeight = 18
          end
          inherited btnDelete: TBitBtn
            Left = 491
            OnClick = frameParameterDefinition_btnDeleteClick
            ExplicitLeft = 491
          end
          inherited seNumberOfParameters: TJvSpinEdit
            Height = 26
            OnChange = frameParameterDefinition_seNumberOfParametersChange
            ExplicitHeight = 26
          end
        end
        inherited dgParameters: TRbwDataGrid4
          Width = 599
          Height = 310
          ExplicitWidth = 599
          ExplicitHeight = 310
        end
      end
    end
    object jvspRIV: TJvStandardPage
      Left = 0
      Top = 0
      Width = 605
      Height = 525
      HelpType = htKeyword
      HelpKeyword = 'RIV_River_Package'
      Caption = 'jvspRIV'
      inline framePkgRIV: TframePackage
        Left = 0
        Top = 0
        Width = 605
        Height = 161
        Align = alTop
        TabOrder = 0
        TabStop = True
        ExplicitWidth = 605
        inherited lblComments: TLabel
          Width = 76
          Height = 18
          ExplicitWidth = 76
          ExplicitHeight = 18
        end
        inherited lblPackage: TLabel
          Width = 78
          Height = 18
          ExplicitWidth = 78
          ExplicitHeight = 18
        end
        inherited memoComments: TMemo
          Width = 574
          ExplicitWidth = 574
        end
        inherited rcSelectionController: TRbwController
          ControlList = <
            item
              Control = framePkgRIV.lblComments
            end
            item
              Control = framePkgRIV.memoComments
            end
            item
              Control = frameRivParameterDefinition
            end>
        end
      end
      inline frameRivParameterDefinition: TframeListParameterDefinition
        Left = 0
        Top = 161
        Width = 605
        Height = 364
        Align = alClient
        Enabled = False
        TabOrder = 1
        TabStop = True
        ExplicitTop = 161
        ExplicitWidth = 605
        ExplicitHeight = 364
        inherited pnlParameterCount: TPanel
          Top = 316
          Width = 605
          ExplicitTop = 316
          ExplicitWidth = 605
          inherited lblNumParameters: TLabel
            Width = 156
            Height = 18
            ExplicitWidth = 156
            ExplicitHeight = 18
          end
          inherited btnDelete: TBitBtn
            Left = 491
            OnClick = frameParameterDefinition_btnDeleteClick
            ExplicitLeft = 491
          end
          inherited seNumberOfParameters: TJvSpinEdit
            Height = 26
            OnChange = frameParameterDefinition_seNumberOfParametersChange
            ExplicitHeight = 26
          end
        end
        inherited dgParameters: TRbwDataGrid4
          Width = 599
          Height = 310
          ExplicitWidth = 599
          ExplicitHeight = 310
        end
      end
    end
    object jvspDRN: TJvStandardPage
      Left = 0
      Top = 0
      Width = 605
      Height = 525
      HelpType = htKeyword
      HelpKeyword = 'DRN_Drain_Package_Pane'
      Caption = 'jvspDRN'
      inline framePkgDRN: TframePackage
        Left = 0
        Top = 0
        Width = 605
        Height = 161
        Align = alTop
        TabOrder = 0
        TabStop = True
        ExplicitWidth = 605
        inherited lblComments: TLabel
          Width = 76
          Height = 18
          ExplicitWidth = 76
          ExplicitHeight = 18
        end
        inherited lblPackage: TLabel
          Width = 78
          Height = 18
          ExplicitWidth = 78
          ExplicitHeight = 18
        end
        inherited memoComments: TMemo
          Width = 574
          ExplicitWidth = 574
        end
        inherited rcSelectionController: TRbwController
          ControlList = <
            item
              Control = framePkgDRN.lblComments
            end
            item
              Control = framePkgDRN.memoComments
            end
            item
              Control = frameDrnParameterDefinition
            end>
        end
      end
      inline frameDrnParameterDefinition: TframeListParameterDefinition
        Left = 0
        Top = 161
        Width = 605
        Height = 364
        Align = alClient
        Enabled = False
        TabOrder = 1
        TabStop = True
        ExplicitTop = 161
        ExplicitWidth = 605
        ExplicitHeight = 364
        inherited pnlParameterCount: TPanel
          Top = 316
          Width = 605
          ExplicitTop = 316
          ExplicitWidth = 605
          inherited lblNumParameters: TLabel
            Width = 156
            Height = 18
            ExplicitWidth = 156
            ExplicitHeight = 18
          end
          inherited btnDelete: TBitBtn
            Left = 491
            OnClick = frameParameterDefinition_btnDeleteClick
            ExplicitLeft = 491
          end
          inherited seNumberOfParameters: TJvSpinEdit
            Height = 26
            OnChange = frameParameterDefinition_seNumberOfParametersChange
            ExplicitHeight = 26
          end
        end
        inherited dgParameters: TRbwDataGrid4
          Width = 599
          Height = 310
          ExplicitWidth = 599
          ExplicitHeight = 310
        end
      end
    end
    object jvspDRT: TJvStandardPage
      Left = 0
      Top = 0
      Width = 605
      Height = 525
      HelpType = htKeyword
      HelpKeyword = 'DRT_Drain_Return_Package_Pane'
      Caption = 'jvspDRT'
      inline framePkgDRT: TframePackage
        Left = 0
        Top = 0
        Width = 605
        Height = 161
        Align = alTop
        TabOrder = 0
        TabStop = True
        ExplicitWidth = 605
        inherited lblComments: TLabel
          Width = 76
          Height = 18
          ExplicitWidth = 76
          ExplicitHeight = 18
        end
        inherited lblPackage: TLabel