{
  @name defines the form on which the user activates or deactivates
  MODFLOW packages.

  To add a new package, add a new page to
  @link(TfrmModflowPackages.jvplPackages)
  and put a @link(TFramePackage) or one of its descendants on it.
  Add additional controls if required.
  Add a new package to @link(TPhastModel.ModflowPackages
  frmGoPhast.PhastModel.ModflowPackages).
  Modfify @link(TfrmModflowPackages.GetData) and
  @link(TfrmModflowPackages.SetData) to use the new package and
  @link(TFramePackage). Modify TUndoChangePackageSelection.Changed to reflect
  the new package. Update @link(TModflowPackages.Assign),
  @link(TModflowPackages.Create), @link(TModflowPackages.Destroy),
  @link(TModflowPackages.Reset).
}
unit frmModflowPackagesUnit;

interface

uses
  Windows, Messages, SysUtils, Variants, Classes, Graphics, Controls, Forms,
  Dialogs, frmCustomGoPhastUnit, JvPageList, JvExControls, ExtCtrls,
  JvExExtCtrls, JvNetscapeSplitter, ComCtrls, StdCtrls, JvExStdCtrls,
  JvCheckBox, framePackageUnit, Buttons, UndoItems, ModflowPackageSelectionUnit,
  ArgusDataEntry, framePcgUnit, ModflowPackagesUnit, Mask, JvExMask, JvSpin,
  RbwController, Grids, RbwDataGrid4, ModflowParameterUnit,
  ModflowTransientListParameterUnit, OrderedCollectionUnit,
  frameListParameterDefinitionUnit, frameArrayParameterDefinitionUnit,
  framePackageTransientLayerChoiceUnit, frameEtsPackageUnit, ImgList,
  framePackageResUnit, PhastModelUnit, GoPhastTypes, RbwParser,
  framePackageLAK_Unit, DataSetUnit, framePackageSFRUnit,
  framePackageLayerChoiceUnit, framePackageUZFUnit, frameGmgUnit, frameSipUnit,
  frameDe4Unit, JvExComCtrls, JvComCtrls, RequiredDataSetsUndoUnit,
  framePackageHobUnit, framePackageLpfUnit, frameModpathSelectionUnit,
  framePackageHufUnit, HufDefinition, framePackageMnw2Unit, framePackageSubUnit,
  frameZoneBudgetUnit, framePackageSwtUnit, framePkgHydmodUnit;

type
  TfrmModflowPackages = class(TfrmCustomGoPhast)
    tvPackages: TTreeView;
    JvNetscapeSplitter1: TJvNetscapeSplitter;
    jvplPackages: TJvPageList;
    jvspLPF: TJvStandardPage;
    jvspCHD: TJvStandardPage;
    framePkgCHD: TframePackage;
    pnlBottom: TPanel;
    btnHelp: TBitBtn;
    btnOK: TBitBtn;
    btnCancel: TBitBtn;
    jvspPCG: TJvStandardPage;
    framePCG: TframePCG;
    jvspGHB: TJvStandardPage;
    framePkgGHB: TframePackage;
    jvspWEL: TJvStandardPage;
    framePkgWEL: TframePackage;
    jvspRIV: TJvStandardPage;
    framePkgRIV: TframePackage;
    jvspDRN: TJvStandardPage;
    framePkgDRN: TframePackage;
    jvspDRT: TJvStandardPage;
    framePkgDRT: TframePackage;
    rbwLpfParamCountController: TRbwController;
    frameLpfParameterDefinition: TframeArrayParameterDefinition;
    tvLpfParameterTypes: TTreeView;
    JvNetscapeSplitter2: TJvNetscapeSplitter;
    frameChdParameterDefinition: TframeListParameterDefinition;
    frameDrnParameterDefinition: TframeListParameterDefinition;
    frameDrtParameterDefinition: TframeListParameterDefinition;
    frameGhbParameterDefinition: TframeListParameterDefinition;
    frameRivParameterDefinition: TframeListParameterDefinition;
    frameWelParameterDefinition: TframeListParameterDefinition;
    jvspRCH: TJvStandardPage;
    jvspEVT: TJvStandardPage;
    framePkgEVT: TframePackageTransientLayerChoice;
    frameEvtParameterDefinition: TframeListParameterDefinition;
    framePkgRCH: TframePackageTransientLayerChoice;
    frameRchParameterDefinition: TframeListParameterDefinition;
    jvspETS: TJvStandardPage;
    framePkgETS: TframeEtsPackage;
    frameEtsParameterDefinition: TframeListParameterDefinition;
    ilCheckImages: TImageList;
    jvspRES: TJvStandardPage;
    framePkgRES: TframePackageRes;
    jvspLAK: TJvStandardPage;
    framePkgLAK: TframePackageLAK;
    jvspSFR: TJvStandardPage;
    frameSFRParameterDefinition: TframeListParameterDefinition;
    framePkgSFR: TframePackageSFR;
    pcSFR: TJvPageControl;
    tabSfrGeneral: TTabSheet;
    tabSfrParameters: TTabSheet;
    jplSfrParameters: TJvPageList;
    splitSFR: TSplitter;
    jvspUZF: TJvStandardPage;
    framePkgUZF: TframePackageUZF;
    jvspGMG: TJvStandardPage;
    framePkgGMG: TframeGMG;
    jvspSIP: TJvStandardPage;
    framePkgSIP: TframeSIP;
    jvspDE4: TJvStandardPage;
    framePkgDE4: TframeDE4;
    jvspHOB: TJvStandardPage;
    framePkgHOB: TframePackageHob;
    jvspHFB: TJvStandardPage;
    framePkgHFB: TframePackage;
    frameHfbParameterDefinition: TframeListParameterDefinition;
    framePkgLPF: TframePackageLpf;
    jvspModpath: TJvStandardPage;
    frameModpath: TframeModpathSelection;
    jvspCHOB: TJvStandardPage;
    framePkgCHOB: TframePackage;
    jvspDROB: TJvStandardPage;
    jvspGBOB: TJvStandardPage;
    jvspRVOB: TJvStandardPage;
    framePkgDROB: TframePackage;
    framePkgGBOB: TframePackage;
    framePkgRVOB: TframePackage;
    JvNetscapeSplitter3: TJvNetscapeSplitter;
    jvspHUF: TJvStandardPage;
    framePkgHuf: TframePackageHuf;
    tvHufParameterTypes: TTreeView;
    JvNetscapeSplitter4: TJvNetscapeSplitter;
    JvNetscapeSplitter5: TJvNetscapeSplitter;
    frameHufParameterDefinition: TframeListParameterDefinition;
    rbwHufParamCountController: TRbwController;
    jvspMNW2: TJvStandardPage;
    framePkgMnw2: TframePackageMnw2;
    jvspBCF: TJvStandardPage;
    framePkgBCF: TframePackage;
    jvspSUB: TJvStandardPage;
    framePkgSUB: TframePackageSub;
    jvspZoneBudget: TJvStandardPage;
    frameZoneBudget: TframeZoneBudget;
    jvspSWT: TJvStandardPage;
    framePkgSwt: TframePackageSwt;
    jvspHydmod: TJvStandardPage;
    framePkgHydmod: TframePkgHydmod;
    procedure tvPackagesChange(Sender: TObject; Node: TTreeNode);
    procedure btnOKClick(Sender: TObject);
    procedure FormDestroy(Sender: TObject); override;
    procedure tvLpfParameterTypesChange(Sender: TObject; Node: TTreeNode);
    procedure frameParameterDefinition_seNumberOfParametersChange(
      Sender: TObject);
    procedure frameParameterDefinition_btnDeleteClick(Sender: TObject);
    procedure jvplPackagesChange(Sender: TObject);
    procedure tvPackagesMouseUp(Sender: TObject; Button: TMouseButton;
      Shift: TShiftState; X, Y: Integer);
    procedure framePkgSFRrcSelectionControllerEnabledChange(Sender: TObject);
    procedure framePkgSFRcbSfrUnsatflowClick(Sender: TObject);
    procedure framePkgSFRcbSfrLpfHydraulicCondClick(Sender: TObject);
    procedure framePkgSFRrgSfr2ISFROPTClick(Sender: TObject);
    procedure frameSFRParameterDefinitionseNumberOfParametersChange(
      Sender: TObject);
    procedure frameSFRParameterDefinitionbtnDeleteClick(Sender: TObject);
    procedure frameSFRParameterDefinitiondgParametersSelectCell(Sender: TObject;
      ACol, ARow: Integer; var CanSelect: Boolean);
    procedure frameSFRParameterDefinitiondgParametersSetEditText(
      Sender: TObject; ACol, ARow: Integer; const Value: string);
    procedure FormResize(Sender: TObject);
    procedure frameModpathrcSelectionControllerEnabledChange(Sender: TObject);
    procedure framePkgEVTrcSelectionControllerEnabledChange(Sender: TObject);
    procedure framePkgRCHrcSelectionControllerEnabledChange(Sender: TObject);
    procedure FormCreate(Sender: TObject); override;
    procedure tvHufParameterTypesChange(Sender: TObject; Node: TTreeNode);
    procedure framePkgHufrcSelectionControllerEnabledChange(Sender: TObject);
    procedure framePkgUZFrcSelectionControllerEnabledChange(Sender: TObject);
    procedure framePkgBCFrcSelectionControllerEnabledChange(Sender: TObject);
  private
    IsLoaded: boolean;
    CurrentParameterType: TParameterType;
    SteadyParameters: TModflowSteadyParameters;
    HufParameters: THufModflowParameters;
    TransientListParameters: TModflowTransientListParameters;
    PackageList: TList;
    FSfrParameterInstances: TSfrParamInstances;
    procedure AssignParameterToRow(ActiveGrid: TRbwDataGrid4; RowIndex: Integer;
      Parameter: TModflowParameter);
    procedure SetData;
    function NewParameterName: string;
    procedure FillLpfTree;
    function ParentFrame(Sender: TObject): TframeListParameterDefinition;
    procedure FillTransientGrids;
    procedure AddPackagesToList(Packages: TModflowPackages);
    procedure framePkgLPFSelectedChange(Sender: TObject);
    procedure EnableSfrParameters;
    procedure GetSfrParamInstances;
    procedure SetSfrParamInstances;
    procedure AdjustDroppedWidth(OwnerComponent: TComponent);
    procedure ReadPackages;
    procedure SetpcSFR_ClientBorderWidth;
    procedure CheckLpfParameters;
    function PackageUsed(const ID: string): boolean;
    procedure CheckSfrParameterInstances;
    procedure FillHfbGrid;
    procedure InitializeFrame(Frame: TframeListParameterDefinition);
    procedure EnableEvtModpathOption;
    procedure EnableRchModpathOption;
    procedure ChdSelectedChange(Sender: TObject);
    procedure DrnSelectedChange(Sender: TObject);
    procedure GhbSelectedChange(Sender: TObject);
    procedure RivSelectedChange(Sender: TObject);
    procedure FillHufTree;
    procedure UpdateFlowParamGrid(Node: TTreeNode;
      ParameterFrame: TframeListParameterDefinition;
      ParameterCollection: TCollection;
      ParameterFrameController: TRbwController);
    procedure ActivateHufReferenceChoice;
    procedure EnableUzfVerticalKSource;
    { Private declarations }
  public
    procedure GetData;
    { Public declarations }
  end;

  TUndoChangePackageSelection = class(TCustomUndoChangeParameters)
  private
    FOldPackages: TModflowPackages;
    FNewPackages: TModflowPackages;
    FOldSfrParameterInstances: TSfrParamInstances;
    FNewSfrParameterInstances: TSfrParamInstances;
    FOldHydroGeologicUnits: THydrogeologicUnits;
    FOldInterBlockTransmissivity: array of integer;
    FOldAquiferType: array of integer;
    procedure UpdateLayerGroupProperties(BcfPackage: TModflowPackageSelection);
  protected
    function Description: string; override;
  public
    Constructor Create(var NewSteadyParameters: TModflowSteadyParameters;
      var NewTransientParameters: TModflowTransientListParameters;
      var SfrParameterInstances: TSfrParamInstances;
      var NewHufModflowParameters: THufModflowParameters);
    Destructor Destroy; override;
    procedure DoCommand; override;
    procedure Undo; override;
  end;

var
  frmModflowPackages: TfrmModflowPackages = nil;

implementation

uses Contnrs, JvListComb, frmGoPhastUnit, ScreenObjectUnit,
  ModflowConstantHeadBoundaryUnit, frmGridColorUnit, frmShowHideObjectsUnit,
  frameSfrParamInstancesUnit, LayerStructureUnit, frmErrorsAndWarningsUnit, 
  frmManageFluxObservationsUnit, ModflowSubsidenceDefUnit;

{$R *.dfm}

type
  TParameterColumns = (pcName, pcValue, pcUseZone, pcUseMultiplier);

procedure TfrmModflowPackages.AssignParameterToRow(ActiveGrid: TRbwDataGrid4;
  RowIndex: Integer; Parameter: TModflowParameter);
begin
  ActiveGrid.Objects[0, RowIndex] := Parameter;
  ActiveGrid.Cells[Ord(pcName), RowIndex] := Parameter.ParameterName;
  ActiveGrid.Cells[Ord(pcValue), RowIndex] := FloatToStr(Parameter.Value);
  if (Parameter is TModflowSteadyParameter)
    and not (Parameter.ParameterType = ptHFB) then
  begin
    ActiveGrid.Checked[Ord(pcUseZone), RowIndex] :=
      TModflowSteadyParameter(Parameter).UseZone;
    ActiveGrid.Checked[Ord(pcUseMultiplier), RowIndex] :=
      TModflowSteadyParameter(Parameter).UseMultiplier;
  end;
end;

function TfrmModflowPackages.PackageUsed(const ID: string): boolean;
var
  PackageIndex : Integer;
  Package: TModflowPackageSelection;
begin
  result := false;
  for PackageIndex := 0 to PackageList.Count - 1 do
  begin
    Package := PackageList[PackageIndex];
    if Package.PackageIdentifier = ID then
    begin
      result := Package.IsSelected;
      Exit;
    end;
  end;
end;

procedure TfrmModflowPackages.CheckSfrParameterInstances;
var
  PageIndex: Integer;
  Page: TJvCustomPage;
  Frame: TframeSfrParamInstances;
  ParameterName: string;
  InstanceIndex: Integer;
  InstanceName: string;
  StartTime: double;
  EndTime: double;
  InvalidParameterNames: TStringList;
  IsInvalid: boolean;
  ParamNameIndex: Integer;
begin
  // Don't check SFR parameters if the SFR package isn't used.
  if not PackageUsed(StrSFR_Identifier) then Exit;
  // Don't check SFR parameters if SFR parameters can't be used.
  if framePkgSFR.CalculateISFROPT <> 0 then Exit;

  InvalidParameterNames := TStringList.Create;
  try
    for PageIndex := 0 to jplSfrParameters.PageCount - 1 do
    begin
      Page := jplSfrParameters.Pages[PageIndex];
      Assert(Page.ControlCount= 1);
      Frame := Page.Controls[0] as TframeSfrParamInstances;
      ParameterName := frameSFRParameterDefinition.dgParameters.Cells[Ord(pcName), PageIndex+1];
      if ParameterName <> '' then
      begin
        IsInvalid := True;
        for InstanceIndex := 1 to Frame.seInstanceCount.AsInteger do
        begin
          InstanceName := Frame.rdgSfrParamInstances.Cells[Ord(sicInstanceName), InstanceIndex];

          if (InstanceName <> '')
            and TryStrToFloat(Frame.rdgSfrParamInstances.
              Cells[Ord(sicStartTime), InstanceIndex], StartTime)
            and TryStrToFloat(Frame.rdgSfrParamInstances.
              Cells[Ord(sicEndTime), InstanceIndex], EndTime) then
          begin
            IsInvalid := False;
            break;
          end;
        end;
        if IsInvalid then
        begin
          InvalidParameterNames.Add(ParameterName);
        end;
      end;
    end;

    frmErrorsAndWarnings.RemoveWarningGroup('SFR Parameters');
    if InvalidParameterNames.Count > 0 then
    begin
      for ParamNameIndex := 0 to InvalidParameterNames.Count - 1 do
      begin
        frmErrorsAndWarnings.AddWarning('SFR Parameters',
          'The SFR parameter named "' + InvalidParameterNames[ParamNameIndex]
          + '" can''t be used because no parameter instances are defined '
          + 'for it.');
      end;
      frmErrorsAndWarnings.Show;
    end;
  finally
    InvalidParameterNames.Free;
  end;
end;

procedure TfrmModflowPackages.CheckLpfParameters;
var
  ParamIndex: Integer;
  Param: TModflowSteadyParameter;
  VKCB_Defined: boolean;
  VK_Defined: boolean;
  VANI_Defined: boolean;
  SS_Defined: boolean;
  SY_Defined: boolean;
  Quasi3dUsed: boolean;
  VerticalHydraulicConductivityUsed: boolean;
  VerticalAnisotropyUsed: boolean;
  UnitIndex: Integer;
  LayerGroup: TLayerGroup;
  ShowErrors: boolean;
  SpecificStorageUsed: boolean;
  SpecificYieldUsed: boolean;
begin
  if not PackageUsed(StrLPF_Identifier) then Exit;

  VKCB_Defined := False;
  VK_Defined := False;
  VANI_Defined := False;
  SS_Defined := False;
  SY_Defined := False;
  for ParamIndex := 0 to SteadyParameters.Count - 1 do
  begin
    Param := SteadyParameters[ParamIndex];
    case Param.ParameterType of
      ptLPF_VK: VK_Defined := True;
      ptLPF_VANI: VANI_Defined := True;
      ptLPF_VKCB: VKCB_Defined := True;
      ptLPF_SS: SS_Defined := True;
      ptLPF_SY: SY_Defined := True;
    end;
  end;

  Quasi3dUsed := False;
  VerticalHydraulicConductivityUsed := False;
  VerticalAnisotropyUsed := False;
  if frmGoPhast.PhastModel.LayerStructure.ModflowLayerCount > 1 then
  begin
    // Skip the top of the model: it doesn't count.
    for UnitIndex := 1 to frmGoPhast.PhastModel.LayerStructure.Count - 1 do
    begin
      LayerGroup := frmGoPhast.PhastModel.LayerStructure[UnitIndex];
      if LayerGroup.Simulated then
      begin
        if LayerGroup.VerticalHydraulicConductivityMethod = 0 then
        begin
          VerticalHydraulicConductivityUsed := True;
        end
        else
        begin
          VerticalAnisotropyUsed := True;
        end;
      end
      else
      begin
        Quasi3dUsed := True;
      end;
    end;
  end;

  frmErrorsAndWarnings.RemoveWarningGroup('LPF Parameters');
  SpecificStorageUsed := False;
  SpecificYieldUsed := False;
  if frmGoPhast.PhastModel.ModflowStressPeriods.TransientModel then
  begin
    SpecificStorageUsed := True;
// Skip the top of the model: it doesn't count.
    for UnitIndex := 1 to frmGoPhast.PhastModel.LayerStructure.Count - 1 do
    begin
      LayerGroup := frmGoPhast.PhastModel.LayerStructure[UnitIndex];
      if LayerGroup.Simulated then
      begin
        if LayerGroup.AquiferType <> 0 then
        begin
          SpecificYieldUsed := True;
        end
      end;
    end;
  end;

  ShowErrors := False;
  if VKCB_Defined and not Quasi3dUsed then
  begin
    ShowErrors := True;
    frmErrorsAndWarnings.AddWarning('LPF Parameters',
      'One or more VKCB parameters are defined in the LPF package '
      + 'but they won''t be used because'
      + ' all the layers are simulated.');
  end;

  if VK_Defined and not VerticalHydraulicConductivityUsed then
  begin
    ShowErrors := True;
    if frmGoPhast.PhastModel.LayerStructure.ModflowLayerCount = 1 then
    begin
      frmErrorsAndWarnings.AddWarning('LPF Parameters',
        'One or more VK parameters are defined in the LPF package '
        + 'but they won''t be used because'
        + ' there is only one layer in the model.');
    end
    else
    begin
      frmErrorsAndWarnings.AddWarning('LPF Parameters',
        'One or more VK parameters are defined in the LPF package '
        + 'but they won''t be used because'
        + ' vertical anisotropy is used for all the layers. '
        + 'Check the MODFLOW Layers dialog box if you want to use '
        + 'vertical anisotropy.');
    end;
  end;

  if VANI_Defined and not VerticalAnisotropyUsed then
  begin
    ShowErrors := True;
    if frmGoPhast.PhastModel.LayerStructure.ModflowLayerCount = 1 then
    begin
      frmErrorsAndWarnings.AddWarning('LPF Parameters',
        'One or more VANI parameters are defined in the LPF package '
        + 'but they won''t be used because'
        + ' there is only one layer in the model.');
    end
    else
    begin
      frmErrorsAndWarnings.AddWarning('LPF Parameters',
        'One or more VANI parameters are defined in the LPF package '
        + 'but they won''t be used because'
        + ' vertical hydraulic hydraulic conductivity is used for all the layers. '
        + 'Check the MODFLOW Layers dialog box if you want to use '
        + 'vertical anisotropy.');
    end;
  end;

  if SS_Defined and not SpecificStorageUsed then
  begin
    ShowErrors := True;
    frmErrorsAndWarnings.AddWarning('LPF Parameters',
      'One or more SS parameters are defined in the LPF package '
      + 'but they won''t be used because'
      + ' there are no transient stress periods in the model.');
  end;

  if SY_Defined and not SpecificYieldUsed then
  begin
    ShowErrors := True;
    if not frmGoPhast.PhastModel.ModflowStressPeriods.TransientModel then
    begin
      frmErrorsAndWarnings.AddWarning('LPF Parameters',
        'One or more SY parameters are defined in the LPF package '
        + 'but they won''t be used because'
        + ' there are no transient stress periods in the model.');
    end
    else
    begin
      frmErrorsAndWarnings.AddWarning('LPF Parameters',
        'One or more SY parameters are defined in the LPF package '
        + 'but they won''t be used because'
        + ' all of the layers are confined.');
    end;
  end;

  if ShowErrors then
  begin
    frmErrorsAndWarnings.Show;
  end;

end;

procedure TfrmModflowPackages.btnOKClick(Sender: TObject);
var
  NeedToDefineFluxObservations: Boolean;
  ModflowPackages: TModflowPackages;
  SubPackage: TSubPackageSelection;
  SwtPackage: TSwtPackageSelection;
begin
  inherited;
  CheckLpfParameters;
  CheckSfrParameterInstances;

  ModflowPackages := frmGoPhast.PhastModel.ModflowPackages;
  NeedToDefineFluxObservations := False;
  if framePkgCHOB.Selected and
    not ModflowPackages.ChobPackage.IsSelected then
  begin
    NeedToDefineFluxObservations := True;
  end
  else if framePkgDROB.Selected and
    not ModflowPackages.DrobPackage.IsSelected then
  begin
    NeedToDefineFluxObservations := True;
  end
  else if framePkgGBOB.Selected and
    not ModflowPackages.GbobPackage.IsSelected then
  begin
    NeedToDefineFluxObservations := True;
  end
  else if framePkgRVOB.Selected and
    not ModflowPackages.RvobPackage.IsSelected then
  begin
    NeedToDefineFluxObservations := True;
  end;

  SetData;

  SubPackage := ModflowPackages.SubPackage;
  if SubPackage.IsSelected then
  begin
    SubPackage.PrintChoices.ReportErrors;
  end;

  SwtPackage := ModflowPackages.SwtPackage;
  if SwtPackage.IsSelected then
  begin
    SwtPackage.PrintChoices.ReportErrors;
  end;

  if NeedToDefineFluxObservations then
  begin
    Hide;
    ShowAForm(TfrmManageFluxObservations);
  end;

  if framePkgHuf.Selected
    and (frmGoPhast.PhastModel.HydrogeologicUnits.Count = 0) then
  begin
    frmGoPhast.miMF_HydrogeologicUnitsClick(nil);
  end;

  if (frmGoPhast.PhastModel.ModflowPackages.SubPackage.IsSelected
    and not frmGoPhast.PhastModel.LayerStructure.SubsidenceDefined)
    or (frmGoPhast.PhastModel.ModflowPackages.SwtPackage.IsSelected
    and not frmGoPhast.PhastModel.LayerStructure.SwtDefined) then
  begin
    frmGoPhast.acLayersExecute(nil);
  end;
end;

procedure TfrmModflowPackages.FillHufTree;
var
  PriorBaseNode: TTreeNode;
  ChildNode: TTreeNode;
  HkNode: TTreeNode;
begin
  tvHufParameterTypes.Items.Clear;
  
  PriorBaseNode := nil;

  ChildNode := tvHufParameterTypes.Items.Add(PriorBaseNode,
    'HK (horizontal hydraulic conductivity)');
  ChildNode.Data := Pointer(ptHUF_HK);
  HkNode := ChildNode;

  ChildNode := tvHufParameterTypes.Items.Add(PriorBaseNode,
    'HANI (horizontal anisotropy)');
  ChildNode.Data := Pointer(ptHUF_HANI);

  ChildNode := tvHufParameterTypes.Items.Add(PriorBaseNode,
    'VK (vertical hydraulic conductivity)');
  ChildNode.Data := Pointer(ptHUF_VK);

  ChildNode := tvHufParameterTypes.Items.Add(PriorBaseNode,
    'VANI (vertical anisotropy)');
  ChildNode.Data := Pointer(ptHUF_VANI);

  ChildNode := tvHufParameterTypes.Items.Add(PriorBaseNode,
    'SS (specific storage)');
  ChildNode.Data := Pointer(ptHUF_SS);

  ChildNode := tvHufParameterTypes.Items.Add(PriorBaseNode,
    'SY (specific yield)');
  ChildNode.Data := Pointer(ptHUF_SY);

  ChildNode := tvHufParameterTypes.Items.Add(PriorBaseNode,
    'SYTP (storage coefficient for the top active cell)');
  ChildNode.Data := Pointer(ptHUF_SYTP);

  ChildNode := tvHufParameterTypes.Items.Add(PriorBaseNode,
    'KDEP (hydraulic conductivity depth-dependence coefficient)');
  ChildNode.Data := Pointer(ptHUF_KDEP);

  ChildNode := tvHufParameterTypes.Items.Add(PriorBaseNode,
    'LVDA (horizontal anisotropy angle)');
  ChildNode.Data := Pointer(ptHUF_LVDA);

  tvHufParameterTypes.Selected := HkNode;
end;

procedure TfrmModflowPackages.FillLpfTree;
var
  PriorBaseNode: TTreeNode;
  ChildNode: TTreeNode;
  HkNode: TTreeNode;
begin
  tvLpfParameterTypes.Items.Clear;

  PriorBaseNode := nil;

  ChildNode := tvLpfParameterTypes.Items.Add(PriorBaseNode,
    'HK (horizontal hydraulic conductivity)');
  ChildNode.Data := Pointer(ptLPF_HK);
  HkNode := ChildNode;

  ChildNode := tvLpfParameterTypes.Items.Add(PriorBaseNode,
    'HANI (horizontal anisotropy)');
  ChildNode.Data := Pointer(ptLPF_HANI);

  ChildNode := tvLpfParameterTypes.Items.Add(PriorBaseNode,
    'VK (vertical hydraulic conductivity)');
  ChildNode.Data := Pointer(ptLPF_VK);

  ChildNode := tvLpfParameterTypes.Items.Add(PriorBaseNode,
    'VANI (vertical anisotropy)');
  ChildNode.Data := Pointer(ptLPF_VANI);

  ChildNode := tvLpfParameterTypes.Items.Add(PriorBaseNode,
    'SS (specific storage)');
  ChildNode.Data := Pointer(ptLPF_SS);

  ChildNode := tvLpfParameterTypes.Items.Add(PriorBaseNode,
    'SY (specific yield)');
  ChildNode.Data := Pointer(ptLPF_SY);

  ChildNode := tvLpfParameterTypes.Items.Add(PriorBaseNode,
    'VKCB (vertical hydraulic conductivity of confining layer)');
  ChildNode.Data := Pointer(ptLPF_VKCB);

  tvLpfParameterTypes.Selected := HkNode;
end;

procedure TfrmModflowPackages.framePkgBCFrcSelectionControllerEnabledChange(
  Sender: TObject);
begin
  inherited;
  EnableUzfVerticalKSource;
end;

procedure TfrmModflowPackages.framePkgEVTrcSelectionControllerEnabledChange(
  Sender: TObject);
begin
  inherited;
//  framePkgEVT.rcSelectionControllerEnabledChange(nil);
  EnableEvtModpathOption;
end;

procedure TfrmModflowPackages.framePkgHufrcSelectionControllerEnabledChange(
  Sender: TObject);
begin
  inherited;
  ActivateHufReferenceChoice;
end;

procedure TfrmModflowPackages.framePkgLPFSelectedChange(Sender: TObject);
begin
  framePkgSFR.LpfUsed := framePkgLPF.Selected;
end;

procedure TfrmModflowPackages.ChdSelectedChange(Sender: TObject);
begin
  framePkgCHOB.CanSelect := framePkgCHD.Selected;
  if not framePkgCHOB.CanSelect then
  begin
    framePkgCHOB.Selected := False;
  end;
end;

procedure TfrmModflowPackages.DrnSelectedChange(Sender: TObject);
begin
  framePkgDROB.CanSelect := framePkgDRN.Selected;
  if not framePkgDROB.CanSelect then
  begin
    framePkgDROB.Selected := False;
  end;
end;

procedure TfrmModflowPackages.GhbSelectedChange(Sender: TObject);
begin
  framePkgGBOB.CanSelect := framePkgGHB.Selected;
  if not framePkgGBOB.CanSelect then
  begin
    framePkgGBOB.Selected := False;
  end;
end;

procedure TfrmModflowPackages.RivSelectedChange(Sender: TObject);
begin
  framePkgRVOB.CanSelect := framePkgRIV.Selected;
  if not framePkgRVOB.CanSelect then
  begin
    framePkgRVOB.Selected := False;
  end;
end;

procedure TfrmModflowPackages.framePkgRCHrcSelectionControllerEnabledChange(
  Sender: TObject);
begin
  inherited;
//  framePkgRCH.rcSelectionControllerEnabledChange(nil);
  EnableRchModpathOption;
end;

procedure TfrmModflowPackages.EnableSfrParameters;
var
  OldActivePage: TTabSheet;
begin
  frameSFRParameterDefinition.Enabled :=
    framePkgSFR.rcSelectionController.Enabled
    and (framePkgSFR.CalculateISFROPT = 0);
  OldActivePage := pcSFR.ActivePage;
  tabSfrParameters.TabVisible := frameSFRParameterDefinition.Enabled;
  pcSFR.ActivePage := OldActivePage;
  if not frameSFRParameterDefinition.Enabled then
  begin
    frameSFRParameterDefinition.seNumberOfParameters.OnEnter(
      frameSFRParameterDefinition.seNumberOfParameters);
    frameSFRParameterDefinition.seNumberOfParameters.Value := 0;
    frameSFRParameterDefinition.seNumberOfParameters.OnChange(
      frameSFRParameterDefinition.seNumberOfParameters);
  end;
  tabSfrGeneral.TabVisible := tabSfrParameters.TabVisible;
  if not tabSfrGeneral.TabVisible then
  begin
    pcSFR.ActivePage := tabSfrGeneral;
  end;
  SetpcSFR_ClientBorderWidth;
end;

procedure TfrmModflowPackages.SetpcSFR_ClientBorderWidth;
begin
  if tabSfrParameters.TabVisible then
  begin
    pcSFR.ClientBorderWidth := 4;
  end
  else
  begin
    pcSFR.ClientBorderWidth := 0;
  end;
end;

procedure TfrmModflowPackages.framePkgSFRcbSfrLpfHydraulicCondClick(
  Sender: TObject);
begin
  inherited;
  EnableSfrParameters;
end;

procedure TfrmModflowPackages.framePkgSFRcbSfrUnsatflowClick(Sender: TObject);
begin
  inherited;
  EnableSfrParameters;
  framePkgSFR.rcSelectionControllerEnabledChange(Sender);
end;

procedure TfrmModflowPackages.framePkgSFRrcSelectionControllerEnabledChange(
  Sender: TObject);
begin
  inherited;
  framePkgSFR.rcSelectionControllerEnabledChange(Sender);
  EnableSfrParameters;
end;

procedure TfrmModflowPackages.framePkgSFRrgSfr2ISFROPTClick(Sender: TObject);
begin
  inherited;
  EnableSfrParameters;
end;

procedure TfrmModflowPackages.framePkgUZFrcSelectionControllerEnabledChange(
  Sender: TObject);
begin
  inherited;
  EnableUzfVerticalKSource;
end;

procedure TfrmModflowPackages.frameSFRParameterDefinitionbtnDeleteClick(
  Sender: TObject);
var
  PageIndex: integer;
  Page: TJvCustomPage;
  Frame: TframeSfrParamInstances;
begin
  inherited;
  frameParameterDefinition_btnDeleteClick(Sender);
  frameSFRParameterDefinition.btnDeleteClick(frameSFRParameterDefinition.btnDelete);
  PageIndex := frameSFRParameterDefinition.dgParameters.SelectedRow -1;
  frameSFRParameterDefinition.btnDeleteClick(frameSFRParameterDefinition.btnDelete);
  if (PageIndex >= 0) and (PageIndex < jplSfrParameters.PageCount) then
  begin
    Page := jplSfrParameters.Pages[PageIndex];
    Assert(Page.ControlCount= 1);
    Frame := Page.Controls[0] as TframeSfrParamInstances;
    Frame.Free;
    Page.Free;
  end;
end;

procedure TfrmModflowPackages.frameSFRParameterDefinitiondgParametersSelectCell(
  Sender: TObject; ACol, ARow: Integer; var CanSelect: Boolean);
var
  PageIndex: integer;
begin
  inherited;
  frameSFRParameterDefinition.dgParametersSelectCell(Sender, ACol, ARow, CanSelect);
  PageIndex := frameSFRParameterDefinition.dgParameters.SelectedRow -1;
  if PageIndex < jplSfrParameters.PageCount then
  begin
    jplSfrParameters.ActivePageIndex := PageIndex;
  end;
end;

procedure TfrmModflowPackages.frameSFRParameterDefinitiondgParametersSetEditText(
  Sender: TObject; ACol, ARow: Integer; const Value: string);
var
  PageIndex: Integer;
  Page: TJvCustomPage;
  Frame: TframeSfrParamInstances;
begin
  inherited;
  frameSFRParameterDefinition.dgParametersSetEditText(Sender, ACol, ARow, Value);