inherited frmModflowPackages: TfrmModflowPackages
  HelpType = htKeyword
  HelpKeyword = 'MODFLOW_Packages_Dialog_Box'
  Caption = 'MODFLOW Packages and Programs'
  ClientHeight = 555
  ClientWidth = 782
  OnResize = FormResize
  ExplicitWidth = 800
  ExplicitHeight = 600
  PixelsPerInch = 120
  TextHeight = 18
  object JvNetscapeSplitter1: TJvNetscapeSplitter
    Left = 177
    Top = 0
    Height = 514
    Align = alLeft
    MinSize = 1
    Maximized = False
    Minimized = False
    ButtonCursor = crDefault
    ExplicitLeft = 121
    ExplicitTop = -14
    ExplicitHeight = 252
  end
  object jvplPackages: TJvPageList
    Left = 187
    Top = 0
    Width = 595
    Height = 514
    ActivePage = jvspSWI
    PropagateEnable = False
    Align = alClient
    OnChange = jvplPackagesChange
    object jvspLPF: TJvStandardPage
      Left = 0
      Top = 0
      Width = 595
      Height = 514
      HelpType = htKeyword
      HelpKeyword = 'LPF_Layer_Property_Flow_Package'
      Caption = 'LPF (Layer Property Flow)'
      object splitLprParameter: TJvNetscapeSplitter
        Left = 121
        Top = 291
        Height = 223
        Align = alLeft
        MinSize = 1
        Maximized = False
        Minimized = False
        ButtonCursor = crDefault
        ExplicitLeft = 256
        ExplicitTop = 96
        ExplicitHeight = 100
      end
      object JvNetscapeSplitter3: TJvNetscapeSplitter
        Left = 0
        Top = 281
        Width = 595
        Height = 10
        Cursor = crVSplit
        Align = alTop
        MinSize = 1
        Maximized = False
        Minimized = False
        ButtonCursor = crDefault
        ExplicitLeft = -4
        ExplicitTop = 283
        ExplicitWidth = 605
      end
      inline frameLpfParameterDefinition: TframeArrayParameterDefinition
        Left = 131
        Top = 291
        Width = 464
        Height = 223
        Align = alClient
        Enabled = False
        TabOrder = 2
        TabStop = True
        ExplicitLeft = 131
        ExplicitTop = 291
        ExplicitWidth = 464
        ExplicitHeight = 223
        inherited pnlParameterCount: TPanel
          Top = 175
          Width = 464
          ExplicitTop = 175
          ExplicitWidth = 464
          inherited lblNumParameters: TLabel
            Width = 156
            Height = 18
            ExplicitWidth = 156
            ExplicitHeight = 18
          end
          inherited btnDelete: TBitBtn
            Left = 351
            Top = 9
            Enabled = True
            TabOrder = 1
            OnClick = frameParameterDefinition_btnDeleteClick
            ExplicitLeft = 351
            ExplicitTop = 9
          end
          inherited seNumberOfParameters: TJvSpinEdit
            Height = 26
            Enabled = True
            TabOrder = 0
            OnChange = frameParameterDefinition_seNumberOfParametersChange
            ExplicitHeight = 26
          end
        end
        inherited dgParameters: TRbwDataGrid4
          Width = 458
          Height = 112
          Enabled = True
          Columns = <
            item
              AutoAdjustRowHeights = False
              ButtonCaption = '...'
              ButtonFont.Charset = DEFAULT_CHARSET
              ButtonFont.Color = clWindowText
              ButtonFont.Height = -11
              ButtonFont.Name = 'Tahoma'
              ButtonFont.Style = []
              ButtonUsed = False
              ButtonWidth = 20
              CheckMax = False
              CheckMin = False
              ComboUsed = False
              Format = rcf4String
              LimitToList = False
              MaxLength = 10
              ParentButtonFont = False
              WordWrapCaptions = False
              WordWrapCells = False
              CaseSensitivePicklist = False
              CheckStyle = csCheck
              AutoAdjustColWidths = True
            end
            item
              AutoAdjustRowHeights = False
              ButtonCaption = '...'
              ButtonFont.Charset = DEFAULT_CHARSET
              ButtonFont.Color = clWindowText
              ButtonFont.Height = -11
              ButtonFont.Name = 'Tahoma'
              ButtonFont.Style = []
              ButtonUsed = False
              ButtonWidth = 20
              CheckMax = False
              CheckMin = False
              ComboUsed = False
              Format = rcf4Real
              LimitToList = False
              MaxLength = 0
              ParentButtonFont = False
              WordWrapCaptions = False
              WordWrapCells = False
              CaseSensitivePicklist = False
              CheckStyle = csCheck
              AutoAdjustColWidths = True
            end
            item
              AutoAdjustRowHeights = False
              ButtonCaption = '...'
              ButtonFont.Charset = DEFAULT_CHARSET
              ButtonFont.Color = clWindowText
              ButtonFont.Height = -11
              ButtonFont.Name = 'Tahoma'
              ButtonFont.Style = []
              ButtonUsed = False
              ButtonWidth = 20
              CheckMax = False
              CheckMin = False
              ComboUsed = False
              Format = rcf4Boolean
              LimitToList = False
              MaxLength = 0
              ParentButtonFont = False
              WordWrapCaptions = False
              WordWrapCells = False
              CaseSensitivePicklist = False
              CheckStyle = csCheck
              AutoAdjustColWidths = True
            end
            item
              AutoAdjustRowHeights = False
              ButtonCaption = '...'
              ButtonFont.Charset = DEFAULT_CHARSET
              ButtonFont.Color = clWindowText
              ButtonFont.Height = -11
              ButtonFont.Name = 'Tahoma'
              ButtonFont.Style = []
              ButtonUsed = False
              ButtonWidth = 20
              CheckMax = False
              CheckMin = False
              ComboUsed = False
              Format = rcf4Boolean
              LimitToList = False
              MaxLength = 0
              ParentButtonFont = False
              WordWrapCaptions = False
              WordWrapCells = False
              CaseSensitivePicklist = False
              CheckStyle = csCheck
              AutoAdjustColWidths = True
            end>
          ExplicitWidth = 458
          ExplicitHeight = 112
        end
        inherited pnlTop: TPanel
          Width = 464
          ExplicitWidth = 464
          inherited lblParamValue: TLabel
            Width = 101
            Height = 18
            ExplicitWidth = 101
            ExplicitHeight = 18
          end
        end
      end
      object tvLpfParameterTypes: TTreeView
        Left = 0
        Top = 291
        Width = 121
        Height = 223
        Align = alLeft
        Enabled = False
        HideSelection = False
        Indent = 20
        ReadOnly = True
        TabOrder = 1
        OnChange = tvLpfParameterTypesChange
      end
      inline framePkgLPF: TframePackageLpf
        Left = 0
        Top = 0
        Width = 595
        Height = 281
        Align = alTop
        TabOrder = 0
        TabStop = True
        ExplicitWidth = 595
        ExplicitHeight = 281
        inherited lblComments: TLabel
          Width = 76
          Height = 18
          ExplicitWidth = 76
          ExplicitHeight = 18
        end
        inherited lblPackage: TLabel
          Width = 78
          Height = 18
          ExplicitWidth = 78
          ExplicitHeight = 18
        end
        inherited memoComments: TMemo
          Width = 564
          ExplicitWidth = 564
        end
        inherited rdgOptions: TRbwDataGrid4
          Width = 567
          ExplicitWidth = 567
        end
        inherited rcSelectionController: TRbwController
          ControlList = <
            item
              Control = framePkgLPF.lblComments
            end
            item
              Control = framePkgLPF.memoComments
            end
            item
              Control = framePkgLPF.rdgOptions
            end>
          OnEnabledChange = framePkgLPFrcSelectionControllerEnabledChange
        end
      end
    end
    object jvspHUF: TJvStandardPage
      Left = 0
      Top = 0
      Width = 595
      Height = 514
      HelpType = htKeyword
      HelpKeyword = 'HUF2_Hydrogeologic_Unit_Flow'
      Caption = 'jvspHUF'
      object JvNetscapeSplitter4: TJvNetscapeSplitter
        Left = 0
        Top = 275
        Width = 595
        Height = 10
        Cursor = crVSplit
        Align = alTop
        MinSize = 1
        Maximized = False
        Minimized = False
        ButtonCursor = crDefault
        ExplicitTop = 204
        ExplicitWidth = 605
      end
      object JvNetscapeSplitter5: TJvNetscapeSplitter
        Left = 121
        Top = 285
        Height = 229
        Align = alLeft
        MinSize = 1
        Maximized = False
        Minimized = False
        ButtonCursor = crDefault
        ExplicitLeft = 256
        ExplicitTop = 96
        ExplicitHeight = 100
      end
      inline framePkgHuf: TframePackageHuf
        Left = 0
        Top = 0
        Width = 595
        Height = 275
        Align = alTop
        TabOrder = 0
        TabStop = True
        ExplicitWidth = 595
        DesignSize = (
          595
          275)
        inherited lblComments: TLabel
          Width = 76
          Height = 18
          ExplicitWidth = 76
          ExplicitHeight = 18
        end
        inherited lblPackage: TLabel
          Width = 78
          Height = 18
          ExplicitWidth = 78
          ExplicitHeight = 18
        end
        inherited memoComments: TMemo
          Width = 564
          ExplicitWidth = 564
        end
        inherited cbSaveHeads: TCheckBox
          Width = 441
          ExplicitWidth = 441
        end
        inherited cbSaveFlows: TCheckBox
          Width = 417
          ExplicitWidth = 417
        end
        inherited rgElevationSurfaceChoice: TRadioGroup
          Width = 313
          ExplicitWidth = 313
        end
        inherited rcSelectionController: TRbwController
          ControlList = <
            item
              Control = framePkgHuf.lblComments
            end
            item
              Control = framePkgHuf.memoComments
            end
            item
              Control = framePkgHuf.cbSaveHeads
            end
            item
              Control = framePkgHuf.cbSaveFlows
            end
            item
              Control = frameHufParameterDefinition
            end
            item
              Control = tvHufParameterTypes
            end>
          OnEnabledChange = framePkgHufrcSelectionControllerEnabledChange
        end
      end
      object tvHufParameterTypes: TTreeView
        Left = 0
        Top = 285
        Width = 121
        Height = 229
        Align = alLeft
        Enabled = False
        HideSelection = False
        Indent = 20
        ReadOnly = True
        TabOrder = 1
        OnChange = tvHufParameterTypesChange
      end
      inline frameHufParameterDefinition: TframeListParameterDefinition
        Left = 131
        Top = 285
        Width = 464
        Height = 229
        Align = alClient
        Enabled = False
        TabOrder = 2
        TabStop = True
        ExplicitLeft = 131
        ExplicitTop = 285
        ExplicitWidth = 464
        ExplicitHeight = 229
        inherited pnlParameterCount: TPanel
          Top = 181
          Width = 464
          ExplicitTop = 181
          ExplicitWidth = 464
          inherited lblNumParameters: TLabel
            Width = 156
            Height = 18
            ExplicitWidth = 156
            ExplicitHeight = 18
          end
          inherited btnDelete: TBitBtn
            Left = 351
            Top = 9
            Enabled = True
            TabOrder = 1
            OnClick = frameParameterDefinition_btnDeleteClick
            ExplicitLeft = 351
            ExplicitTop = 9
          end
          inherited seNumberOfParameters: TJvSpinEdit
            Height = 26
            TabOrder = 0
            OnChange = frameParameterDefinition_seNumberOfParametersChange
            ExplicitHeight = 26
          end
        end
        inherited dgParameters: TRbwDataGrid4
          Width = 458
          Height = 175
          Enabled = True
          ExplicitWidth = 458
          ExplicitHeight = 175
        end
      end
    end
    object jvspCHD: TJvStandardPage
      Left = 0
      Top = 0
      Width = 595
      Height = 514
      HelpType = htKeyword
      HelpKeyword = 'CHD_Time_Variant_Specified_Head'
      Caption = 'CHD (Time-Variant Specified-Head Package)'
      inline framePkgCHD: TframePackage
        Left = 0
        Top = 0
        Width = 595
        Height = 161
        Align = alTop
        TabOrder = 0
        TabStop = True
        ExplicitWidth = 595
        inherited lblComments: TLabel
          Width = 76
          Height = 18
          ExplicitWidth = 76
          ExplicitHeight = 18
        end
        inherited lblPackage: TLabel
          Width = 78
          Height = 18
          ExplicitWidth = 78
          ExplicitHeight = 18
        end
        inherited memoComments: TMemo
          Width = 564
          ExplicitWidth = 564
        end
        inherited rcSelectionController: TRbwController
          ControlList = <
            item
              Control = framePkgCHD.lblComments
            end
            item
              Control = framePkgCHD.memoComments
            end
            item
              Control = frameChdParameterDefinition
            end>
        end
      end
      inline frameChdParameterDefinition: TframeListParameterDefinition
        Left = 0
        Top = 161
        Width = 595
        Height = 353
        Align = alClient
        Enabled = False
        TabOrder = 1
        TabStop = True
        ExplicitTop = 161
        ExplicitWidth = 595
        ExplicitHeight = 353
        inherited pnlParameterCount: TPanel
          Top = 305
          Width = 595
          ExplicitTop = 305
          ExplicitWidth = 595
          inherited lblNumParameters: TLabel
            Width = 156
            Height = 18
            ExplicitWidth = 156
            ExplicitHeight = 18
          end
          inherited btnDelete: TBitBtn
            Left = 481
            Top = 9
            TabOrder = 1
            OnClick = frameParameterDefinition_btnDeleteClick
            ExplicitLeft = 481
            ExplicitTop = 9
          end
          inherited seNumberOfParameters: TJvSpinEdit
            Height = 26
            TabOrder = 0
            OnChange = frameParameterDefinition_seNumberOfParametersChange
            ExplicitHeight = 26
          end
        end
        inherited dgParameters: TRbwDataGrid4
          Width = 589
          Height = 299
          ExplicitWidth = 589
          ExplicitHeight = 299
        end
      end
    end
    object jvspGHB: TJvStandardPage
      Left = 0
      Top = 0
      Width = 595
      Height = 514
      HelpType = htKeyword
      HelpKeyword = 'GHB_General_Head_Boundary_Package'
      Caption = 'GHB (General Head Boundary)'
      inline framePkgGHB: TframePackage
        Left = 0
        Top = 0
        Width = 595
        Height = 161
        Align = alTop
        TabOrder = 0
        TabStop = True
        ExplicitWidth = 595
        inherited lblComments: TLabel
          Width = 76
          Height = 18
          ExplicitWidth = 76
          ExplicitHeight = 18
        end
        inherited lblPackage: TLabel
          Width = 78
          Height = 18
          ExplicitWidth = 78
          ExplicitHeight = 18
        end
        inherited memoComments: TMemo
          Width = 564
          ExplicitWidth = 564
        end
        inherited rcSelectionController: TRbwController
          ControlList = <
            item
              Control = framePkgGHB.lblComments
            end
            item
              Control = framePkgGHB.memoComments
            end
            item
              Control = frameGhbParameterDefinition
            end>
        end
      end
      inline frameGhbParameterDefinition: TframeListParameterDefinition
        Left = 0
        Top = 161
        Width = 595
        Height = 353
        Align = alClient
        Enabled = False
        TabOrder = 1
        TabStop = True
        ExplicitTop = 161
        ExplicitWidth = 595
        ExplicitHeight = 353
        inherited pnlParameterCount: TPanel
          Top = 305
          Width = 595
          ExplicitTop = 305
          ExplicitWidth = 595
          inherited lblNumParameters: TLabel
            Width = 156
            Height = 18
            ExplicitWidth = 156
            ExplicitHeight = 18
          end
          inherited btnDelete: TBitBtn
            Left = 481
            OnClick = frameParameterDefinition_btnDeleteClick
            ExplicitLeft = 481
          end
          inherited seNumberOfParameters: TJvSpinEdit
            Height = 26
            OnChange = frameParameterDefinition_seNumberOfParametersChange
            ExplicitHeight = 26
          end
        end
        inherited dgParameters: TRbwDataGrid4
          Width = 589
          Height = 299
          ExplicitWidth = 589
          ExplicitHeight = 299
        end
      end
    end
    object jvspPCG: TJvStandardPage
      Left = 0
      Top = 0
      Width = 595
      Height = 514
      HelpType = htKeyword
      HelpKeyword = 'PCG_Preconditioned_Conjugate_Gradiant'
      Caption = 'PCG (Preconditioned Conjugate-Gradient)'
      inline framePCG: TframePCG
        Left = 0
        Top = 0
        Width = 595
        Height = 514
        Align = alClient
        Anchors = [akLeft, akTop, akBottom]
        TabOrder = 0
        TabStop = True
        ExplicitWidth = 595
        ExplicitHeight = 514
        DesignSize = (
          595
          514)
        inherited lblComments: TLabel
          Width = 76
          Height = 18
          ExplicitWidth = 76
          ExplicitHeight = 18
        end
        inherited lblPackage: TLabel
          Width = 78
          Height = 18
          ExplicitWidth = 78
          ExplicitHeight = 18
        end
        inherited lblPCGMaxOuter: TLabel
          Top = 127
          Width = 289
          Height = 18
          ExplicitTop = 127
          ExplicitWidth = 289
          ExplicitHeight = 18
        end
        inherited lblPCGMaxInner: TLabel
          Top = 155
          Width = 273
          Height = 18
          ExplicitTop = 155
          ExplicitWidth = 273
          ExplicitHeight = 18
        end
        inherited lblPCGMethod: TLabel
          Top = 183
          Width = 296
          Height = 18
          ExplicitTop = 183
          ExplicitWidth = 296
          ExplicitHeight = 18
        end
        inherited lblPCGMaxChangeHead: TLabel
          Top = 295
          Width = 261
          Height = 18
          ExplicitTop = 306
          ExplicitWidth = 261
          ExplicitHeight = 18
        end
        inherited lblPCGMaxResidual: TLabel
          Top = 323
          Width = 210
          Height = 18
          ExplicitTop = 334
          ExplicitWidth = 210
          ExplicitHeight = 18
        end
        inherited lblPCGRelaxation: TLabel
          Top = 351
          Width = 220
          Height = 18
          ExplicitTop = 362
          ExplicitWidth = 220
          ExplicitHeight = 18
        end
        inherited lblPCGMaxEigen: TLabel
          Top = 379
          Width = 320
          Height = 18
          ExplicitTop = 390
          ExplicitWidth = 320
          ExplicitHeight = 18
        end
        inherited lblPCGPrintInterval: TLabel
          Top = 406
          Width = 184
          Height = 18
          ExplicitTop = 417
          ExplicitWidth = 184
          ExplicitHeight = 18
        end
        inherited lblPCGPrintControl: TLabel
          Top = 434
          Width = 189
          Height = 18
          ExplicitTop = 445
          ExplicitWidth = 189
          ExplicitHeight = 18
        end
        inherited lblPCGDampingFactor: TLabel
          Top = 461
          Width = 207
          Height = 18
          ExplicitTop = 472
          ExplicitWidth = 207
          ExplicitHeight = 18
        end
        inherited lblPCGDampPcgT: TLabel
          Top = 489
          Width = 280
          Height = 18
          ExplicitTop = 489
          ExplicitWidth = 280
          ExplicitHeight = 18
        end
        inherited memoComments: TMemo
          Width = 574
          ExplicitWidth = 574
        end
        inherited rdePCGMaxOuter: TRbwDataEntry
          Top = 124
          Width = 242
          ExplicitTop = 124
          ExplicitWidth = 242
        end
        inherited rdePCGMaxInner: TRbwDataEntry
          Top = 152
          Width = 242
          ExplicitTop = 152
          ExplicitWidth = 242
        end
        inherited comboPCGPrecondMeth: TJvImageComboBox
          Top = 180
          Width = 242
          Height = 26
          ItemHeight = 18
          ExplicitTop = 180
          ExplicitWidth = 242
          ExplicitHeight = 26
        end
        inherited rdePCGMaxHeadChange: TRbwDataEntry
          Top = 292
          Width = 242
          ExplicitTop = 292
          ExplicitWidth = 242
        end
        inherited rdePCGMaxResChange: TRbwDataEntry
          Top = 320
          Width = 242
          ExplicitTop = 320
          ExplicitWidth = 242
        end
        inherited rdePCGRelax: TRbwDataEntry
          Top = 348
          Width = 242
          ExplicitTop = 348
          ExplicitWidth = 242
        end
        inherited comboPCGEigenValue: TJvImageComboBox
          Top = 376
          Width = 242
          Height = 26
          ItemHeight = 18
          ExplicitTop = 376
          ExplicitWidth = 242
          ExplicitHeight = 26
        end
        inherited rdePCGPrintInt: TRbwDataEntry
          Top = 403
          Width = 242
          ExplicitTop = 403
          ExplicitWidth = 242
        end
        inherited comboPCGPrint: TJvImageComboBox
          Top = 431
          Width = 242
          Height = 26
          ItemHeight = 18
          ExplicitTop = 431
          ExplicitWidth = 242
          ExplicitHeight = 26
        end
        inherited rdePCGDamp: TRbwDataEntry
          Top = 458
          Width = 242
          ExplicitTop = 458
          ExplicitWidth = 242
        end
        inherited rdePCGDampPcgT: TRbwDataEntry
          Top = 486
          Width = 242
          ExplicitTop = 486
          ExplicitWidth = 242
        end
        inherited gbIHCOFADD: TGroupBox
          Top = 202
          Anchors = [akLeft, akBottom]
          ExplicitTop = 202
        end
        inherited rcSelectionController: TRbwController
          ControlList = <
            item
              Control = framePCG.lblComments
            end
            item
              Control = framePCG.memoComments
            end
            item
              Control = framePCG.comboPCGPrecondMeth
            end
            item
              Control = framePCG.comboPCGPrint
            end
            item
              Control = framePCG.rdePCGDamp
            end
            item
              Control = framePCG.rdePCGMaxHeadChange
            end
            item
              Control = framePCG.rdePCGMaxInner
            end
            item
              Control = framePCG.rdePCGMaxOuter
            end
            item
              Control = framePCG.rdePCGMaxResChange
            end
            item
              Control = framePCG.rdePCGPrintInt
            end
            item
              Control = framePCG.rdePCGDampPcgT
            end
            item
              Control = framePCG.rbIHCOFADD_0
            end
            item
              Control = framePCG.rbIHCOFADD_1
            end>
        end
      end
    end
    object jvspWEL: TJvStandardPage
      Left = 0
      Top = 0
      Width = 595
      Height = 514
      HelpType = htKeyword
      HelpKeyword = 'WEL_Well_Package_Pane'
      Caption = 'jvspWEL'
      inline framePkgWEL: TframePackageWell
        Left = 0
        Top = 0
        Width = 595
        Height = 161
        Align = alTop
        TabOrder = 0
        TabStop = True
        ExplicitWidth = 595
        inherited lblComments: TLabel
          Width = 76
          Height = 18
          ExplicitWidth = 76
          ExplicitHeight = 18
        end
        inherited lblPackage: TLabel
          Width = 78
          Height = 18
          ExplicitWidth = 78
          ExplicitHeight = 18
        end
        inherited lblPhiRamp: TLabel
          Width = 382
          Height = 18
          ExplicitWidth = 382
          ExplicitHeight = 18
        end
        inherited memoComments: TMemo
          Width = 564
          ExplicitWidth = 564
        end
        inherited rcSelectionController: TRbwController
          ControlList = <
            item
              Control = framePkgWEL.lblComments
            end
            item
              Control = framePkgWEL.memoComments
            end
            item
              Control = framePkgWEL.rdePhiRamp
            end
            item
              Control = frameWelParameterDefinition
            end>
        end
      end
      inline frameWelParameterDefinition: TframeListParameterDefinition
        Left = 0
        Top = 161
        Width = 595
        Height = 353
        Align = alClient
        Enabled = False
        TabOrder = 1
        TabStop = True
        ExplicitTop = 161
        ExplicitWidth = 595
        ExplicitHeight = 353
        inherited pnlParameterCount: TPanel
          Top = 305
          Width = 595
          ExplicitTop = 305
          ExplicitWidth = 595
          inherited lblNumParameters: TLabel
            Width = 156
            Height = 18
            ExplicitWidth = 156
            ExplicitHeight = 18
          end
          inherited btnDelete: TBitBtn
            Left = 481
            OnClick = frameParameterDefinition_btnDeleteClick
            ExplicitLeft = 481
          end
          inherited seNumberOfParameters: TJvSpinEdit
            Height = 26
            OnChange = frameParameterDefinition_seNumberOfParametersChange
            ExplicitHeight = 26
          end
        end
        inherited dgParameters: TRbwDataGrid4
          Width = 589
          Height = 299
          ExplicitWidth = 589
          ExplicitHeight = 299
        end
      end
    end
    object jvspRIV: TJvStandardPage
      Left = 0
      Top = 0
      Width = 595
      Height = 514
      HelpType = htKeyword
      HelpKeyword = 'RIV_River_Package'
      Caption = 'jvspRIV'
      inline framePkgRIV: TframePackage
        Left = 0
        Top = 0
        Width = 595
        Height = 161
        Align = alTop
        TabOrder = 0
        TabStop = True
        ExplicitWidth = 595
        inherited lblComments: TLabel
          Width = 76
          Height = 18
          ExplicitWidth = 76
          ExplicitHeight = 18
        end
        inherited lblPackage: TLabel
          Width = 78
          Height = 18
          ExplicitWidth = 78
          ExplicitHeight = 18
        end
        inherited memoComments: TMemo
          Width = 564
          ExplicitWidth = 564
        end
        inherited rcSelectionController: TRbwController
          ControlList = <
            item
              Control = framePkgRIV.lblComments
            end
            item
              Control = framePkgRIV.memoComments
            end
            item
              Control = frameRivParameterDefinition
            end>
        end
      end
      inline frameRivParameterDefinition: TframeListParameterDefinition
        Left = 0
        Top = 161
        Width = 595
        Height = 353
        Align = alClient
        Enabled = False
        TabOrder = 1
        TabStop = True
        ExplicitTop = 161
        ExplicitWidth = 595
        ExplicitHeight = 353
        inherited pnlParameterCount: TPanel
          Top = 305
          Width = 595
          ExplicitTop = 305
          ExplicitWidth = 595
          inherited lblNumParameters: TLabel
            Width = 156
            Height = 18
            ExplicitWidth = 156
            ExplicitHeight = 18
          end
          inherited btnDelete: TBitBtn
            Left = 481
            OnClick = frameParameterDefinition_btnDeleteClick
            ExplicitLeft = 481
          end
          inherited seNumberOfParameters: TJvSpinEdit
            Height = 26
            OnChange = frameParameterDefinition_seNumberOfParametersChange
            ExplicitHeight = 26
          end
        end
        inherited dgParameters: TRbwDataGrid4
          Width = 589
          Height = 299
          ExplicitWidth = 589
          ExplicitHeight = 299
        end
      end
    end
    object jvspDRN: TJvStandardPage
      Left = 0
      Top = 0
      Width = 595