unit Modflow2005ImporterUnit;

interface

// Windows is used so that AnsiCompareText will be inlined. 
uses Windows, SubscriptionUnit, SysUtils, Classes, Contnrs, JclSysUtils,
  ModflowPackageSelectionUnit, Dialogs;

{
Import the MODFLOW-2005 model whose name file is ListFileName.
XOrigin, YOrigin are the X and Y coordinates of the corner of the model at
Row 1, Column1. GridAngle is the angle of the grid and textHandler
is a procedure passed in to handle data read by @name.

This procedure is implemented using classes in the implementation section.
The most important of these is TModflow2005Importer.  In
TModflow2005Importer.Create, instances of other classes are associated
with the symbols used to identify the packages in MODFLOW.
Other important base classes include TPackageImporter, TListImporter,
TArrayImporter, and TObjectArray.
}
procedure ImportModflow2005(const ListFileName: string;
  XOrigin, YOrigin, GridAngle: double; textHandler: TTextHandler);

implementation

uses ModflowGridUnit, AbstractGridUnit, ScreenObjectUnit, GoPhastTypes,
  frmGoPhastUnit, PhastModelUnit, FastGEO, UndoItems, ValueArrayStorageUnit,
  DataSetUnit, Math, GIS_Functions, InterpolationUnit, RbwParser,
  ModflowTimeUnit, LayerStructureUnit, ModflowConstantHeadBoundaryUnit,
  ModflowParameterUnit, OrderedCollectionUnit, IntListUnit,
  ModflowTransientListParameterUnit, ModflowBoundaryUnit, ModflowWellUnit,
  ModflowGhbUnit, ModflowDrnUnit, ModflowRivUnit, ModflowRchUnit, ContourUnit,
  QuadTreeClass, frmImportModflowUnit, ModflowEvtUnit, RealListUnit,
  ModflowSfrUnit, ModflowSfrReachUnit, ModflowSfrParamIcalcUnit,
  ModflowSfrTable, ModflowSfrFlows, ModflowSfrChannelUnit,
  ModflowSfrEquationUnit, ModflowSfrSegment, ModflowSfrUnsatSegment, 
  ModflowHobUnit, ModflowHfbUnit, ModflowLakUnit, ModflowDrtUnit, 
  ModflowEtsUnit, ModflowResUnit, ModflowUzfUnit, ModflowGageUnit, 
  HufDefinition, FluxObservationUnit, ModflowMnw2Unit, ModflowSubsidenceDefUnit;

resourcestring
  StrHydCondAlongRows = 'HYD. COND. ALONG ROWS';
  StrHorizAnisotropy = 'HORIZ. ANI. (COL./ROW)';
  StrVerticalHydCond = 'VERTICAL HYD. COND.';
  StrHorizToVertAnis = 'HORIZ. TO VERTICAL ANI.';
  StrQuasi3DVertHydCond = 'QUASI3D VERT. HYD. COND.';
  StrSpecificStorage = 'SPECIFIC STORAGE';
  StrSpecificYield = 'SPECIFIC YIELD';
  StrWetDry = 'WETDRY PARAMETER';
  StrStorageCoef = 'STORAGE COEFFICIENT';
  StrAll = 'ALL';
  StrNone = 'NONE';
  StrImportedRechargeSt = 'Imported_Recharge_StressPeriod';
  StrImportedRecharge = 'ImportedRecharge';
  StrImportedRechargeLa = 'Imported_Recharge_Layer_StressPeriod';
  StrImportedRechargeEl = 'Imported_Recharge_Elevation';
  StrImportedEvtEl = 'Imported_Evt_Elevation';
  StrImportedEvtLa = 'Imported_Evt_Layer_StressPeriod';
  StrImportedEvtSt = 'Imported_EvtRate_StressPeriod';
  StrImportedEvtSurfSt = 'Imported_EvtSurface_StressPeriod';
  StrImportedEvtExtinctDepthSt = 'Imported_EvtExtinctionDepth_StressPeriod';
  StrLAKEIDARRAY = 'LAKE ID ARRAY';
  StrLAKEBEDLEAKANCEARR = 'LAKEBED LEAKANCE ARRAY';
  StrImportedLakeBottom = 'Imported_Lake_Bottom';
  StrETLAYERINDEXIETS = 'ET LAYER INDEX (IETS)';
  StrETSURFACEETSS = 'ET SURFACE (ETSS)';
  StrEVAPOTRANSRATEET = 'EVAPOTRANS. RATE (ETSR)';
  StrEXTINCTIONDEPTHET = 'EXTINCTION DEPTH (ETSX)';
  StrImportedETSFractionalRate = 'Imported_ETS_FractionalRate_';
  StrImportedETSFractionalDepth = 'Imported_ETS_FractionalDepth_';
  StrETSImportedFractionalDepth = 'ETS_Imported_FractionalDepth_';
  StrETSImportedFractionalRate = 'ETS_Imported_FractionalRate_';
  StrTOPELEVATN = 'TOP ELEVATN: ';
  StrTHICKNESS = 'THICKNESS: ';
  StrCOLUMNTOROWANISOT = 'COLUMN TO ROW ANISOTROPY';
  StrPRIMARYSTORAGECOEF = 'PRIMARY STORAGE COEF';
  StrTRANSMISALONGROWS = 'TRANSMIS. ALONG ROWS';
  StrHYDCONDALONGROW = 'HYD. COND. ALONG ROWS';
  StrVERTHYDCONDTHICK = 'VERT HYD COND /THICKNESS';
  StrSECONDARYSTORAGECO = 'SECONDARY STORAGE COEF';
  StrWETDRYPARAMETER = 'WETDRY PARAMETER';
  StrNUMBEROFBEDSINSY = 'NUMBER OF BEDS IN SYSTEM';
  StrPRECONSOLIDATIONHEA = 'PRECONSOLIDATION HEAD';
  StrELASTICINTERBEDSTO = 'ELASTIC INTERBED STORAGE';
  StrVIRGININTERBEDSTOR = 'VIRGIN INTERBED STORAGE';
  StrSTARTINGCOMPACTION = 'STARTING COMPACTION';
  StrDELAYSTARTINGHEAD = 'DELAY STARTING HEAD';
  StrDELAYPRECOLSOLHEA = 'DELAY PRECOLSOL. HEAD';
  StrDELAYINITIALCOMPAC = 'DELAY INITIAL COMPACTION';
  StrDELAYINTERBEDTHICK = 'DELAY INTERBED THICKNESS';

const
  StrConstant1DRealArray = 'CONSTANT 1D REAL ARRAY:';
  StrVariable1DRealArray = 'VARIABLE 1D REAL ARRAY:';
  StrConstant2DRealArray = 'CONSTANT 2D REAL ARRAY:';
  StrConstant2DRealArrayForLayer = 'CONSTANT 2D REAL ARRAY FOR A LAYER:';
  StrVariable2DRealArray = 'VARIABLE 2D REAL ARRAY:';
  StrVariable2DRealArrayForLayer = 'VARIABLE 2D REAL ARRAY FOR A LAYER:';
  StrVariable2DRealArrayForCrossSection
    = 'VARIABLE 2D REAL ARRAY FOR CROSS SECTION:';
  StrConstant2DIntegerArrayForLayer = 'CONSTANT 2D INTEGER ARRAY FOR A LAYER:';
  StrConstant2DIntegerArray = 'CONSTANT 2D INTEGER ARRAY:';
  StrVariable2DIntegerArrayForLayer = 'VARIABLE 2D INTEGER ARRAY FOR A LAYER:';
  StrVariable2DIntegerArrayForCrossSection
    = 'VARIABLE 2D INTEGER ARRAY FOR CROSS SECTION:';
  StrVariable2DIntegerArray = 'VARIABLE 2D INTEGER ARRAY:';
  StrInitialHead = 'INITIAL HEAD';
  BoundaryArray = 'BOUNDARY ARRAY';

Type
  TDoubleArray = array of double;
  T2DDoubleArray = array of array of double;
  T2DIntArray = array of array of integer;
  TSurfacePointArray = array of array of TPoint2D;
  T3DDoubleArray = array of T2DDoubleArray;
  T3DIntArray = array of T2DIntArray;

  TMultZoneImporter = class;

  TImportedStressPeriod = record
    PERLEN: double;
    NSTP: integer;
    TSMULT: double;
    ISSFLG: integer;
  end;

  TRealConstantRecord = record
    IsConstant: boolean;
    RealValue: double;
  end;

  TRealConstantRecordArray = array of TRealConstantRecord;

  TIntegerConstantRecord = record
    IsConstant: boolean;
    IntegerValue: integer;
  end;

  TIntegerConstantArray = array of TIntegerConstantRecord;

  TClusterRecord = record
    Layer: integer;
    MultiplierName: string;
    ZoneName: string;
    ZoneValues: array of integer;
  end;
  
  TClusterRecordArray = array of TClusterRecord;

  TInstanceRecord = record
    InstanceName: string;
    Clusters: TClusterRecordArray;
  end;

  TArrayParameterRecord = record
    PARNAM: string;
    PARTYP: string;
    Parval: Double;
    Instances: array of TInstanceRecord;
  end;

  TGageImporter = class;
  TChdObsImporter = class;
  TPvalImporter = class;

  TModflow2005Importer = class(TObject)
  strict private
    FCenterPoints: TSurfacePointArray;
  private
    FListFileName: string;
    FPackageIdentifiers: TStringList;
    FFile: TextFile;
    FPointsComputed: Boolean;
    FGageImporter: TGageImporter;
    FChobImporter: TChdObsImporter;
    FPvalImporter: TPvalImporter;
    function GetCenterPoints: TSurfacePointArray;
    property CenterPoints: TSurfacePointArray read GetCenterPoints;
  public
    textHandler: TTextHandler;
    Constructor Create(const ListFileName: string;
      XOrigin, YOrigin, GridAngle: double);
    Destructor Destroy; override;
    procedure ImportModel;
  end;

  TPackageImporter = class(TObject)
  private
    FImportedPackage: boolean;
    procedure AssignConstant2DIntArray(Value: integer; Array2D: T2DIntArray);
    function CreateScreenObject(const Name: string): TScreenObject;
  protected
    FComments: TStringList;
    FImporter: TModflow2005Importer;
    FPackageIdentifier: string;
    FModel: TPhastModel;
    FGrid: TModflowGrid;
    // @name is passed a label indicating the data that has been read from
    // the @link(FImporter) file and reads that data from the file and stores
    // it.
    procedure ReadData(const ALabel: string); virtual;
    // @name takes the data it has stored and maodifies @link(FModel) to
    // include that data.  This often means that @link(TDataArray)s and
    // @link(TScreenObject)s are created.
    procedure HandlePackage; virtual;
    procedure Read1DRealArray(var DoubleArray: TOneDRealArray);
    procedure Read2DRealArray(var DoubleArray: T2DDoubleArray);
    procedure AssignConstant2DArray(Value: Double; Array2D: T2DDoubleArray);
    procedure AssignConstant1DArray(AnArray: TOneDRealArray; Value: Double);
    // @name creates a @link(TScreenObject) that has a vertex at the center
    // of the each cell as seen from the top view of the model.  Each vertex
    // is a new section. When adding verticies, the loop over columns is
    // inside the loop over rows.
    procedure CreateOrRetrieveCellCenterScreenObject(var ScreenObject: TScreenObject);
    procedure AssignRealValuesToCellCenters(DataArray: TDataArray;
      ScreenObject: TScreenObject; ImportedData: T2DDoubleArray);
    procedure AssignIntegerValuesToCellCenters(DataArray: TDataArray;
      ScreenObject: TScreenObject; ImportedData: T2DIntArray);
    procedure AssignBooleanValuesToCellCenters(DataArray: TDataArray;
      ScreenObject: TScreenObject; ImportedData: T2DIntArray);
    procedure ReadVariable2DIntArray(IntArray: T2DIntArray);
    procedure CreateDataArrayAndAssignValues(ScreenObject: TScreenObject;
      const DataArrayName: string; ImportedValues: T2DDoubleArray);
    procedure CheckRealConstArray(out ConstantValue: Double;
      out IsConstant: Boolean; const ArrayToCheck: TRealConstantRecordArray);
    function FixArrayName(const ArrayName: string): string;
    procedure AssignImportedValues(ImportedValues: TValueArrayItem;
      ImportedData: T2DDoubleArray); overload;
    procedure AssignImportedValues(ImportedValues: TValueArrayItem;
      ImportedData: TDoubleArray); overload;
    function UniformArray(ImportedData: TDoubleArray): boolean;
  public
    Constructor Create(Importer: TModflow2005Importer;
      const PackageIdentifier: string);
    Destructor Destroy; override;
    procedure ImportPackage(out NextPackageIndex: integer);
    property ImportedPackage: boolean read FImportedPackage;
  end;

  TNamImporter = class(TPackageImporter)
  private
    FUnitNumbers: TIntegerList;
    FFileNames: TStringList;
  protected
    procedure ReadData(const ALabel: string); override;
  public
    Constructor Create(Importer: TModflow2005Importer);
    Destructor Destroy; override;
  end;

  TDisImporter = class(TPackageImporter)
  strict private
    FOriginPoint: TPoint2D;
    FGridAngle: Double;
    NLAY: integer;
    NROW: integer;
    NCOL: integer;
    NPER: integer;
    ITMUNI: integer;
    LENUNI: integer;
    LAYCBD: array of integer;
    DELR: TOneDRealArray;
    DELC: TOneDRealArray;
    FElevations: array of T2DDoubleArray;
    FConstantElevations : array of TRealConstantRecord;
    FStressPeriods: array of TImportedStressPeriod;
    procedure ReadDataSet1;
    procedure ReadDataSet2;
    procedure ReadConstantDelrDelc;
    procedure ReadVariableDelrDelc;
    function GetLayerBottomIndex(Layer: Integer): integer;
    function GetConfiningBedBottomIndex(Layer: Integer): integer;
    procedure ReadConstantTopElev;
    procedure ReadConstantBottomElev;
    procedure ReadVariableTopElev;
    procedure ReadVariableBottomElev;
    procedure ImportStressPeriods;
    procedure ImportElevations;
    procedure ImportRowsAndColumns;
    procedure ReadStressPeriod;
    procedure InitializeView;
    procedure ReleaseMemory;
  protected
    procedure ReadData(const ALabel: string); override;
    procedure HandlePackage; override;
  public
    Constructor Create(Importer: TModflow2005Importer;
      XOrigin, YOrigin, GridAngle: double);
  end;

  TMultZoneImporter = class(TPackageImporter)
  strict private
    FZoneArrays: array of T2DIntArray;
    FConstantZoneArrays : array of TIntegerConstantRecord;
    FZoneNames: TStringList;
    FMultArrays: array of T2DDoubleArray;
    FConstantMultArrays : array of TRealConstantRecord;
    FMultNames: TStringList;
    FCurrentMultName: string;
    FCurrentZoneName: string;
    procedure ReadNumberOfZones;
    procedure ReadNumberOfMultipliers;
    procedure ReadMultiplierName;
    procedure ReadConstantMultiplier;
    procedure ReadVariableMultiplier;
    procedure ReadMultiplierDefinedByFunction;
    procedure ReadZoneName;
    procedure ReadConstantZoneArray;
    procedure ReadVariableZoneArray;
    procedure ImportZones;
    procedure ImportMultipliers;
//    procedure ReleaseMemory;
  protected
    procedure ReadData(const ALabel: string); override;
    procedure HandlePackage; override;
  public
    Function IndexOfZone(Name: string): integer;
    function ConstantZone(Index: integer; Out ZoneValue: integer): boolean;
    function ZoneArray(Index: integer): T2DIntArray;
    Constructor Create(Importer: TModflow2005Importer);
    destructor Destroy; override;
  end;

  TArrayImporter = class(TPackageImporter)
  protected
    procedure InitializeConstArray(ConstArray: TRealConstantRecordArray);
    procedure InitializeConstIntArray(ConstArray: TIntegerConstantArray);
    procedure ImportDataSet(ImportName: string; ImportArrayName: string;
      const ThreeDConstRealArray: TRealConstantRecordArray;
      const ThreeDRealArray: T3DDoubleArray;
      const LayerFormulaSuffix: string = '');
  end;

  TArrayParameterImporter = class (TArrayImporter)
  protected
    FNextParameterIndex: integer;
    FParameters: array of TArrayParameterRecord;
    procedure ReadArrayParameter;
    function ReadInstance: boolean; virtual;
  end;

  TLpfImporter = class(TArrayParameterImporter)
  private
    FIsSelected: boolean;
    ILPFCB: integer;
    HDRY: double;
    FStorageCoefficientChoice: Boolean;
    FComputeVkUsingCellThickness: Boolean;
    FComputeThicknessUsingStartingHead: Boolean;
    FNoVerticalFlowCorrection: Boolean;
    LAYTYP: array of integer;
    LAYAVG: array of integer;
    CHANI: array of double;
    LAYVKA: array of integer;
    LAYWET: array of integer;
    WETFCT: double;
    IWETIT: integer;
    IHDWET: integer;
    FHk: T3DDoubleArray;
    FHorizontalAnisotropy: T3DDoubleArray;
    FVerticalK: T3DDoubleArray;
    FHorizontalToVerticalAnisotropy: T3DDoubleArray;
    FQuasiVerticalK: T3DDoubleArray;
    FSpecificStorage: T3DDoubleArray;
    FSpecificYield: T3DDoubleArray;
    FWetDry: T3DDoubleArray;
    FStorageCoefficient: T3DDoubleArray;
    FHkConst: TRealConstantRecordArray;
    FHorizontalAnisotropyConst: TRealConstantRecordArray;
    FVerticalKConst: TRealConstantRecordArray;
    FHorizontalToVerticalAnisotropyConst: TRealConstantRecordArray;
    FQuasiVerticalKConst: TRealConstantRecordArray;
    FSpecificStorageConst: TRealConstantRecordArray;
    FSpecificYieldConst: TRealConstantRecordArray;
    FWetDryConst: TRealConstantRecordArray;
    FStorageCoefficientConst: TRealConstantRecordArray;
    procedure ReadDataSet1;
    procedure ReadDataSet1Options;
    procedure ReadDataSets2to6;
    procedure ReadDataSet7;
    procedure ReadDataSets10to16Variable;
    procedure ReadDataSets10to16Constant;
    procedure ImportDataSet1(LpfPackage: TLpfSelection);
    procedure ImportDataSet2;
    procedure ImportDataSet3;
    procedure ImportHorizontalAnisotropy;
    procedure ImportDataSet5;
    procedure ImportDataSet6;
    procedure ImportDataSet7;
    procedure ImportLpfParameters;
    procedure ImportHorizontalHydraulicConductivity;
    procedure ImportVerticalHydraulicConductivity;
    procedure ImportSpecificStorage;
    procedure ImportSpecificYield;
    procedure ImportWetDry;
  protected
    procedure ReadData(const ALabel: string); override;
    procedure HandlePackage; override;
  public
    Constructor Create(Importer: TModflow2005Importer);
  end;

  TBcfImporter = class(TArrayImporter)
  private
    FIsSelected: Boolean;
    HDRY: double;
    WETFCT: double;
    IWDFLG: integer;
    IWETIT: integer;
    IHDWET: integer;
    NLAY: integer;
    LAYCON: TOneDIntegerArray;
    TRPY: TOneDRealArray;
    FConfinedStorage: T3DDoubleArray;
    FConfinedStorage_Const: TRealConstantRecordArray;
    FTran_Const: TRealConstantRecordArray;
    FTran: T3DDoubleArray;
    FHY_Const: TRealConstantRecordArray;
    FHY: T3DDoubleArray;
    FVcont_Const: TRealConstantRecordArray;
    FVcont: T3DDoubleArray;
    FSpecificYield_Const: TRealConstantRecordArray;
    FSpecificYield: T3DDoubleArray;
    FWetDry_Const: TRealConstantRecordArray;
    FWetDry: T3DDoubleArray;
//    FModelLayer: Integer;
    FTransientModel: Boolean;
    procedure ReadDataSet1;
    procedure ReadDataSet2;
    procedure InitializeContArray(var ConstArray: TRealConstantRecordArray);
    procedure Initialize3DArray(var ThreeDArray: T3DDoubleArray);
    procedure ReadVariableAnisotropy;
    procedure ReadConstantAnisotropy;
    procedure ReadVariableArrays;
    procedure ReadConstantArrays;
    procedure ImportDataSet1;
    procedure ImportDataSets2And3;
  protected
    procedure ReadData(const ALabel: string); override;
    procedure HandlePackage; override;
  public
    Constructor Create(Importer: TModflow2005Importer);
  end;

  THufRecord = record
    HUFNAME: string;
    HGUHANI: double;
    HGUVANI: double;
    PrintHK: integer;
    PrintHANI: integer;
    PrintVK: integer;
    PrintSS: integer;
    PrintSY: integer;
    PrintCode: integer;
  end;

  TKdepImporter = class;
  TLvdaImporter = class;

  TCustomHufImporter = class(TArrayParameterImporter)
  protected
    procedure AssignHufParametersZoneAndMultiplier;
  end;

  THufImporter = class(TCustomHufImporter)
  strict private
    HDRY: double;
    FHydrogeologicUnits: array of THufRecord;
    FNextHufIndexIndex: Integer;
    LTHUF: array of integer;
    LAYWT: array of double;
    WETFCT: double;
    IWETIT: Integer;
    IHDWET: Integer;
    NHUF: integer;
    NPHUF: integer;
    IOHUFHDS: integer;
    IOHUFFLWS: integer;
    IsConstTopHuf: Boolean;
    Top: T3DDoubleArray;
    IsConstThicknessHuf: Boolean;
    Thickness: T3DDoubleArray;
    FWetDry: T3DDoubleArray;
    FConstantTopElevations: array of TRealConstantRecord;
    FConstantThicknesses: array of TRealConstantRecord;
    HufPackage: THufPackageSelection;
    FWetDryConst: TRealConstantRecordArray;
    FIsSelected: Boolean;
  private
    FReadLthuf: Boolean;
    FReadKdep: boolean;
    FReadLvda: boolean;
    FKdepImporter: TKdepImporter;
    FLvdaImporter: TLvdaImporter;
    procedure ReadDataSet1;
    procedure ReadDataSet2;
    procedure ReadDataSet3;
    procedure ReadDataSet4;
    procedure ReadVariableWetDry;
    procedure ReadConstantWetDry;
    procedure ReadDataSet6;
    procedure ReadVariableHguGeometry;
    procedure ReadConstantHguGeometry;
    procedure ReadDataSet9;
    procedure ReadDataSet12;
    procedure ImportDataSet1;
    procedure ImportDataSet2;
    procedure ImportDataSet3;
    procedure ImportDataSet4;
    procedure ImportWetDry;
    procedure ImportHydrogeologicUnits;
    procedure ImportGeometry;
    function ReadInstance: boolean; override;
    procedure AssignSteadyParametersZoneAndMultiplier;
    procedure CreateParameters(HydrogeologicUnits: THydrogeologicUnits);
    procedure ReleaseMemory;
  protected
    procedure ReadData(const ALabel: string); override;
    procedure HandlePackage; override;
  public
    Constructor Create(Importer: TModflow2005Importer);
  end;

  TKdepImporter = class(TCustomHufImporter)
  private
    FHufImporter: THufImporter;
    NPKDEP: integer;
    IFKDEP: integer;
    FGroundSurface: T2DDoubleArray;
    FConstantGroundSurface: double;
    FIsConstantGroundSurface: Boolean;
    FHufPackage: THufPackageSelection;
    procedure ReadDataSet1;
    procedure ReadVariableGroundSurface;
    procedure ReadConstantGroundSurface;
    procedure ImportReferenceChoice;
    procedure ImportReferenceLayer;
    procedure CreateParameters;
  protected
    function ReadInstance: boolean; override;
    procedure ReadData(const ALabel: string); override;
    procedure HandlePackage; override;
  public
    Constructor Create(Importer: TModflow2005Importer;
      HufImporter: THufImporter);
  end;

  TLvdaImporter = class(TArrayParameterImporter)
  private
    FHufImporter: THufImporter;
    NPLVDA: integer;
    procedure ReadDataSet1;
    procedure CreateParameters;
  protected
    function ReadInstance: boolean; override;
    procedure ReadData(const ALabel: string); override;
    procedure HandlePackage; override;
  public
    Constructor Create(Importer: TModflow2005Importer;
      HufImporter: THufImporter);
  end;

  TSolverImporter = class (TPackageImporter)
  protected
    procedure DeselectAllSolvers;
    procedure HandlePackage; override;
  end;

  TPcgImporter = class (TSolverImporter)
  private
    MXITER: integer;
    ITER1: integer;
    HCLOSEPCG: double;
    RCLOSEPCG: double;
    RELAXPCG: double;
    NBPOL: integer;
    IPRPCG: integer;
    MUTPCG: integer;
    DAMPPCG: double;
    DAMPPCGT: double;
    NPCOND: integer;
    procedure ReadDataSet1;
    procedure ReadDataSet2;
  protected
    procedure ReadData(const ALabel: string); override;
    procedure HandlePackage; override;
  public
    Constructor Create(Importer: TModflow2005Importer);
  end;

  TGmgImporter = class(TSolverImporter)
  private
    RCLOSE: double;
    IITER: integer;
    HCLOSE: double;
    MXITER: integer;
    DAMP: double;
    IADAMP: integer;
    IOUTGMG: integer;
    IUNITMHC: integer;
    ISM: integer;
    ISC: integer;
    DUP: double;
    DLOW: double;
    CHGLIMIT: double;
    RELAX: double;
    FGmgPackage: TGmgPackageSelection;
    procedure ReadDataSet1;
    procedure ReadDataSet2;
    procedure ReadPartialDataSet3;
    procedure ReadFullDataSet3;
    procedure ReadDataSet4;
    procedure ImportDataSet1;
    procedure ImportDataset2;
    procedure ImportDataSet3;
    procedure ImportDataSet4;
  protected
    procedure ReadData(const ALabel: string); override;
    procedure HandlePackage; override;
  public
    Constructor Create(Importer: TModflow2005Importer);
  end;

  TSipImporter = class(TSolverImporter)
  private
    MXITER: integer;
    NPARM: integer;
    ACCL: double;
    HCLOSE: double;
    IPCALC: integer;
    WSEED: double;
    IPRSIP: integer;
    FSipPackage: TSIPPackageSelection;
    procedure ReadDataSet1;
    procedure ReadDataSet2;
  protected
    procedure ReadData(const ALabel: string); override;
    procedure HandlePackage; override;
  public
    Constructor Create(Importer: TModflow2005Importer);
  end;

  TDe4Importer = class(TSolverImporter)
  private
    ITMX: integer;
    MXUP: integer;
    MXLOW: integer;
    MXBW: integer;
    IFREQ: integer;
    MUTD4: integer;
    ACCL: double;
    HCLOSE: double;
    IPRD4: integer;
    FDe4Package: TDE4PackageSelection;
    procedure ReadDataSet1;
    procedure ReadDataSet2;
  protected
    procedure ReadData(const ALabel: string); override;
    procedure HandlePackage; override;
  public
    Constructor Create(Importer: TModflow2005Importer);
  end;

  TArrayMember = class(TObject)
    Constructor Create; virtual;
  end;

  TArrayMemberClass = class of TArrayMember;

  TObjectArray = class(TArrayMember)
  strict private
    FObjects: array of TArrayMember;
  private
    function GetArrayLength: integer;
    function GetObject(Index: integer): TArrayMember;
    procedure SetArrayLength(const Value: integer);
  strict protected
    property Objects[Index: integer]: TArrayMember
      read GetObject;
  protected
    function ArrayMemberClass: TArrayMemberClass; virtual; abstract;
  public
    property ArrayLength: integer read GetArrayLength
      write SetArrayLength;
    Destructor Destroy; override;
  end;

  TLocation = class(TArrayMember)
    Layer: integer;
    Row: integer;
    Column: integer;
    Used: Boolean;
    AuxilliaryVariables: array of double;
    FObservationGroups: TList;
    FObservationCells: TList;
    Constructor Create; override;
    Destructor Destroy; override;
    function SameObservations(ALocation: TLocation): boolean;
  end;

  TListInstanceObject = class(TObjectArray)
  private
    function GetLocations(Index: integer): TLocation;
  public
    Name: string;
    property Locations[Index: integer]: TLocation read GetLocations; default;
  end;

  TClusterObject = class(TArrayMember)
    MultiplierArray: string;
    ZoneArray: string;
    Zones: array of integer;
    function SimilarZone(Cluster: TClusterObject): boolean;
  end;

  TArrayInstanceObject = class(TObjectArray)
  private
    function GetCluster(Index: integer): TClusterObject;
  protected
    function ArrayMemberClass: TArrayMemberClass; override;
  published
  public
    Name: string;
    property Clusters[Index: integer]: TClusterObject read GetCluster; default;
  end;

  TListParameterObject = class(TObjectArray)
  private
    function GetInstance(Index: integer): TListInstanceObject;
  public
    PARNAM: string;
    ModifiedParamName: string;
    PARTYP: string;
    Parval: Double;
    property Instances[Index: integer]: TListInstanceObject
      read GetInstance; default;
    function GetInstanceByName(const InstanceName: string): TListInstanceObject;
  end;

  TArrayParameterObject = class(TObjectArray)
  private
    function GetInstance(Index: integer): TArrayInstanceObject;
  protected
    function ArrayMemberClass: TArrayMemberClass; override;
  public
    PARNAM: string;
    ModifiedParamName: string;
    PARTYP: string;
    Parval: Double;
    property Instances[Index: integer]: TArrayInstanceObject
      read GetInstance; default;
    function GetInstanceByName(
      const InstanceName: string): TArrayInstanceObject;
  end;

  TListParamArray = class(TObjectArray)
  private
    function GetParams(Index: integer): TListParameterObject;
  public
    property Params[Index: integer]: TListParameterObject
      read GetParams; default;
    function GetParamByName(const ParamName: string): TListParameterObject;
  end;

  TArrayParamArray = class(TObjectArray)
  private
    function GetParams(Index: integer): TArrayParameterObject;
  protected
    function ArrayMemberClass: TArrayMemberClass; override;
  public
    property Params[Index: integer]: TArrayParameterObject
      read GetParams; default;
  end;

  TArrayStressPeriod = class(TArrayMember)
    Reuse: boolean;
    Parameters: array of string;
    Instances: array of string;
  end;

  TListStressPeriod = class(TObjectArray)
  private
    Reuse: boolean;
    Parameters: array of string;
    Instances: array of string;
    function GetBoundary(Index: integer): TLocation;
  public
    property Boundaries[Index: integer]: TLocation
      read GetBoundary; default;
    function IndexOfParameter(const ParameterName: string): integer;
  end;

  TArrayStressPeriodArray = class(TObjectArray)
  private
    function GetStressPeriod(Index: integer): TArrayStressPeriod;
  protected
    function ArrayMemberClass: TArrayMemberClass; override;
  public
    property StressPeriods[Index: integer]: TArrayStressPeriod
      read GetStressPeriod; default;
  end;

  TListStressPeriodArray = class(TObjectArray)
  private
    function GetStressPeriod(Index: integer): TListStressPeriod;
  public
    property StressPeriods[Index: integer]: TListStressPeriod
      read GetStressPeriod; default;
  end;

  TChdInstanceObject = class(TListInstanceObject)
  protected
    function ArrayMemberClass: TArrayMemberClass; override;
  end;

  TChdParameterObject = class(TListParameterObject)
  protected
    function ArrayMemberClass: TArrayMemberClass; override;
  end;

  TChdParamArray = class(TListParamArray)
  protected
    function ArrayMemberClass: TArrayMemberClass; override;
  end;

  TChdStressPeriod = class(TListStressPeriod)
  protected
    function ArrayMemberClass: TArrayMemberClass; override;
  end;

  TChdStressPeriodArray = class(TListStressPeriodArray)
  protected
    function ArrayMemberClass: TArrayMemberClass; override;
  end;

  TCustomFlowObservationImporter = class;

  TListImporter = class(TPackageImporter)
  private
    FParameters: TListParamArray;
    NP: integer;
    FAuxillaryVariables: TStringList;
    FNoPrint: Boolean;
    CurrentParameter: integer;
    CurrentInstance: integer;
    FCurrentStressPeriod: integer;
    ITMP: integer;
    NLST: integer;
    FStressPeriods: TListStressPeriodArray;
    FBoundaryIndex: Integer;
    FObsImporter: TCustomFlowObservationImporter;
    // @name creates a @link(TScreenObject) and adds it to the model.
    // The name of the object will incorporate the stress period number if
    // StressPeriodIndex is greater than or equal to 0.
    // List contains @link(TLocation)s which define where the verticies of
    // the @link(TScreenObject).
    // LayerIndex is used to help determine the @link(TScreenObject.Name)
    // as well as the elevation formula.
    function CreateScreenObject(List: TList;
      var ScreenObjectIndex: Integer; LayerIndex,
      StressPeriodIndex: integer): TScreenObject; virtual;
    procedure SetItemValues(Item: TCustomModflowBoundaryItem;
      Boundaries: TList; EndTime: Double; StartTime: Double;
      ScreenObject: TScreenObject; const ParamName: string); virtual; abstract;
    function GetBoundary(ScreenObject: TScreenObject): TModflowParamBoundary;
      virtual; abstract;