unit ModflowPackageSelectionUnit;

interface

uses SysUtils, Classes, GoPhastTypes, OrderedCollectionUnit, DataSetUnit,
  ModpathParticleUnit, ModflowBoundaryDisplayUnit, ScreenObjectUnit,
  ModflowBoundaryUnit, Mt3dmsChemSpeciesUnit;

Type
  TSelectionType = (stCheckBox, stRadioButton);

  // modpath ordinals
  TReferenceTimeOption = (rtoPeriodAndStep, rtoTime);
  TCompositeBudgetFileOption = (cbfGenerateNew, cbfUseOldFile);
  TModpathOutputMode = (mopEndpoints, mopPathline, mopTimeSeries);
  TTimeMethod = (tmIntervals, tmIndividual);
  TTrackingDirection = (tdForward, tdBackward);
  TWeakSink = (wsPassThrough, wsStop, wsThreshold);
  TEndpointWrite = (ewAll, ewInStoppingZone);
  TTimeSeriesMethod = (tsmUniform, tsmIndividual);

  TModflowPackageSelection = class(TPersistent)
  private
    FComments: TStrings;
    FModel: TBaseModel;
    FPackageIdentifier: string;
    FClassification: string;
    FFrame: pointer;
    FNode: pointer;
    FSelectionType: TSelectionType;
    procedure InvalidateModel;
    procedure SetComments(const Value: TStrings);
  protected
    FIsSelected: boolean;
    procedure SetIsSelected(const Value: boolean); virtual;
    procedure DischargeRoutingUpdate;
    function PackageUsed(Sender: TObject): boolean;
    procedure AddTimeList(TimeList: TCustomTimeList);
    procedure RemoveTimeList(TimeList: TCustomTimeList);
    // @name is used when determining what data sets or global variables are
    // used when evaluating the formula for a MODFLOW boundary condition.
    procedure UpdateDisplayUseList(NewUseList: TStringList;
      ParamType: TParameterType; DataIndex: integer; const DisplayName: string);
    procedure UpdateUseList(DataIndex: integer; NewUseList: TStringList;
      Item: TCustomModflowBoundaryItem);
  public
    procedure Assign(Source: TPersistent); override;
    Constructor Create(Model: TBaseModel);
    Destructor Destroy; override;
    // @name is a string used to label items related to the package.
    // For example, in @link(TfrmShowHideObjects), @name is used to
    // label the objects that set the boundary conditions for a
    // particular package.
    property PackageIdentifier: string read FPackageIdentifier
      write FPackageIdentifier;
    // @name is used to set up a hierarchical arrangement of
    // @link(PackageIdentifier)s.
    property Classification: string read FClassification write FClassification;
    // @name is used in @link(TfrmModflowPackages) to associate a particular
    // package with a particular TFrame.
    property Frame: pointer read FFrame write FFrame;
    // @name is used in @link(TfrmModflowPackages) to display or change
    // @link(IsSelected).
    property Node: pointer read FNode write FNode;
    property SelectionType: TSelectionType read FSelectionType
      write FSelectionType;
    procedure InvalidateAllTimeLists; virtual;
    procedure InitializeVariables; virtual;
  published
    property IsSelected: boolean read FIsSelected write SetIsSelected;
    property Comments: TStrings read FComments write SetComments;
  end;

  TPackageClass = class of TModflowPackageSelection;

  TWellPackage = class(TModflowPackageSelection)
  private
    FMfWellPumpage: TModflowBoundaryDisplayTimeList;
    procedure InvalidateMfWellPumpage(Sender: TObject);
    procedure InitializeMfWellPumpage(Sender: TObject);
    procedure GetMfWellUseList(Sender: TObject; NewUseList: TStringList);
  public
    Constructor Create(Model: TBaseModel);
    Destructor Destroy; override;
    property MfWellPumpage: TModflowBoundaryDisplayTimeList
      read FMfWellPumpage;
    procedure InvalidateAllTimeLists; override;
  end;

  TGhbPackage = class(TModflowPackageSelection)
  private
    FMfGhbConductance: TModflowBoundaryDisplayTimeList;
    FMfGhbBoundaryHead: TModflowBoundaryDisplayTimeList;
    procedure GetMfGhbConductanceUseList(Sender: TObject;
      NewUseList: TStringList);
    procedure GetMfGhbBoundaryHeadUseList(Sender: TObject;
      NewUseList: TStringList);
    procedure InitializeGhbDisplay(Sender: TObject);
  public
    Constructor Create(Model: TBaseModel);
    Destructor Destroy; override;
    property MfGhbConductance: TModflowBoundaryDisplayTimeList
      read FMfGhbConductance;
    property MfGhbBoundaryHead: TModflowBoundaryDisplayTimeList
      read FMfGhbBoundaryHead;
    procedure InvalidateAllTimeLists; override;
  end;

  TDrnPackage = class(TModflowPackageSelection)
  private
    FMfDrnElevation: TModflowBoundaryDisplayTimeList;
    FMfDrnConductance: TModflowBoundaryDisplayTimeList;
    procedure InitializeDrnDisplay(Sender: TObject);
    procedure GetMfDrnConductanceUseList(Sender: TObject;
      NewUseList: TStringList);
    procedure GetMfDrnElevationUseList(Sender: TObject;
      NewUseList: TStringList);
  public
    Constructor Create(Model: TBaseModel);
    Destructor Destroy; override;
    property MfDrnConductance: TModflowBoundaryDisplayTimeList
      read FMfDrnConductance;
    property MfDrnElevation: TModflowBoundaryDisplayTimeList
      read FMfDrnElevation;
    procedure InvalidateAllTimeLists; override;
  end;

  TDrtPackage = class(TModflowPackageSelection)
  private
    FMfDrtReturnFraction: TModflowBoundaryDisplayTimeList;
    FMfDrtConductance: TModflowBoundaryDisplayTimeList;
    FMfDrtElevation: TModflowBoundaryDisplayTimeList;
    procedure InitializeDrtDisplay(Sender: TObject);
    procedure GetMfDrtConductanceUseList(Sender: TObject;
      NewUseList: TStringList);
    procedure GetMfDrtElevationUseList(Sender: TObject;
      NewUseList: TStringList);
    procedure GetMfDrtReturnFractionUseList(Sender: TObject;
      NewUseList: TStringList);
  public
    Constructor Create(Model: TBaseModel);
    Destructor Destroy; override;
    property MfDrtConductance: TModflowBoundaryDisplayTimeList
      read FMfDrtConductance;
    property MfDrtElevation: TModflowBoundaryDisplayTimeList
      read FMfDrtElevation;
    property MfDrtReturnFraction: TModflowBoundaryDisplayTimeList
      read FMfDrtReturnFraction;
    procedure InvalidateAllTimeLists; override;
  end;

  TRivPackage = class(TModflowPackageSelection)
  private
    FMfRivConductance: TModflowBoundaryDisplayTimeList;
    FMfRivBottom: TModflowBoundaryDisplayTimeList;
    FMfRivStage: TModflowBoundaryDisplayTimeList;
    procedure InitializeRivDisplay(Sender: TObject);
    procedure GetMfRivConductanceUseList(Sender: TObject;
      NewUseList: TStringList);
    procedure GetMfRivStageUseList(Sender: TObject; NewUseList: TStringList);
    procedure GetMfRivBottomUseList(Sender: TObject; NewUseList: TStringList);
  public
    Constructor Create(Model: TBaseModel);
    Destructor Destroy; override;
    property MfRivConductance: TModflowBoundaryDisplayTimeList
      read FMfRivConductance;
    property MfRivStage: TModflowBoundaryDisplayTimeList read FMfRivStage;
    property MfRivBottom: TModflowBoundaryDisplayTimeList read FMfRivBottom;
    procedure InvalidateAllTimeLists; override;
  end;

  TChdPackage = class(TModflowPackageSelection)
  private
    FMfChdStartingHead: TModflowBoundaryDisplayTimeList;
    FMfChdEndingHead: TModflowBoundaryDisplayTimeList;
    procedure InitializeChdDisplay(Sender: TObject);
    procedure GetMfChdStartingHeadUseList(Sender: TObject;
      NewUseList: TStringList);
    procedure GetMfChdEndingHeadUseList(Sender: TObject;
      NewUseList: TStringList);
  public
    Constructor Create(Model: TBaseModel);
    Destructor Destroy; override;
    property MfChdStartingHead: TModflowBoundaryDisplayTimeList
      read FMfChdStartingHead;
    property MfChdEndingHead: TModflowBoundaryDisplayTimeList
      read FMfChdEndingHead;
    procedure InvalidateAllTimeLists; override;
  end;

  TCustomTransientArrayItem = class(TCollectionItem)
  private
    FFileName: string;
    FUniform: boolean;
    FArrayName: string;
  public
    procedure Assign(Source: TPersistent); override;
  published
    property ArrayName: string read FArrayName write FArrayName;
    property FileName: string read FFileName write FFileName;
    property Uniform: boolean read FUniform write FUniform;
  end;

  TTransientMultItem = class(TCustomTransientArrayItem)
  private
    FUniformValue: double;
  public
    procedure Assign(Source: TPersistent); override;
  published
    property UniformValue: double read FUniformValue write FUniformValue;
  end;

  TTransientZoneItem = class(TCustomTransientArrayItem)
  private
    FUniformValue: integer;
  public
    procedure Assign(Source: TPersistent); override;
  published
    property UniformValue: integer read FUniformValue write FUniformValue;
  end;

  TTransientMultCollection = class(TCollection)
  private
    function GetItem(Index: integer): TTransientMultItem;
    procedure SetItem(Index: integer; const Value: TTransientMultItem);
  public
    Constructor Create;
    function Add: TTransientMultItem;
    property Items[Index: integer]: TTransientMultItem
      read GetItem write SetItem; default;
  end;

  TTransientZoneCollection = class(TCollection)
  private
    function GetItem(Index: integer): TTransientZoneItem;
    procedure SetItem(Index: integer; const Value: TTransientZoneItem);
  public
    Constructor Create;
    function Add: TTransientZoneItem;
    property Items[Index: integer]: TTransientZoneItem
      read GetItem write SetItem; default;
  end;

  TLpfSelection = class(TModflowPackageSelection)
  private
    FUseSaturatedThickness: boolean;
    FUseConstantCV: boolean;
    FUseCvCorrection: boolean;
    FUseVerticalFlowCorrection: boolean;
    FUseStorageCoefficient: boolean;
    FMultZoneArraysExported: boolean;
    procedure SetUseConstantCV(const Value: boolean);
    procedure SetUseCvCorrection(const Value: boolean);
    procedure SetUseSaturatedThickness(const Value: boolean);
    procedure SetUseVerticalFlowCorrection(const Value: boolean);
    procedure SetUseStorageCoefficient(const Value: boolean);
  public
    procedure InitializeVariables; override;
    procedure Assign(Source: TPersistent); override;
    Constructor Create(Model: TBaseModel);
    destructor Destroy; override;
    property MultZoneArraysExported: boolean read FMultZoneArraysExported
      write FMultZoneArraysExported;
  published
    property UseConstantCV: boolean read FUseConstantCV write SetUseConstantCV;
    property UseSaturatedThickness: boolean read FUseSaturatedThickness
      write SetUseSaturatedThickness;
    property UseCvCorrection: boolean read FUseCvCorrection
      write SetUseCvCorrection default True;
    property UseVerticalFlowCorrection: boolean read FUseVerticalFlowCorrection
      write SetUseVerticalFlowCorrection default True;
    property UseStorageCoefficient: boolean read FUseStorageCoefficient
      write SetUseStorageCoefficient;
  end;

  THDryPrintOption = (hpoDontPrintHdry, hpoPrintHdry);

  TUpwPackageSelection = class(TModflowPackageSelection)
  private
    FHDryPrintOption: THDryPrintOption;
    procedure SetHDryPrintOption(const Value: THDryPrintOption);
  public
    procedure Assign(Source: TPersistent); override;
    Constructor Create(Model: TBaseModel);
    destructor Destroy; override;
    procedure InitializeVariables; override;
  published
    property HDryPrintOption: THDryPrintOption read FHDryPrintOption
      write SetHDryPrintOption stored True;
  end;

  THufReferenceChoice = (hrcModelTop, hrcReferenceLayer);

  THufPackageSelection = class(TModflowPackageSelection)
  private
    FSaveHeads: boolean;
    FSaveFlows: boolean;
    FReferenceChoice: THufReferenceChoice;
    procedure SetSaveFlows(const Value: boolean);
    procedure SetSaveHeads(const Value: boolean);
    procedure SetReferenceChoice(const Value: THufReferenceChoice);
  public
    procedure Assign(Source: TPersistent); override;
    Constructor Create(Model: TBaseModel);
    procedure InitializeVariables; override;
  published
    property SaveHeads: boolean read FSaveHeads write SetSaveHeads default True;
    property SaveFlows: boolean read FSaveFlows write SetSaveFlows default True;
    property ReferenceChoice: THufReferenceChoice read FReferenceChoice
      write SetReferenceChoice;
  end;

  TPcgMethod = (pmCholesky, pmPolynomial);
  TPcgPrintSelection = (ppsAll, ppsIterations, ppsNone, ppsFail);
  TPcgEstimateMaxEigenvalue = (peeEstimate, peeDontEstimate);

  TPcgSelection = class(TModflowPackageSelection)
  private
    FRELAX: TRealStorage;
    FNBPOL: TPcgEstimateMaxEigenvalue;
    FMUTPCG: TPcgPrintSelection;
    FRCLOSE: TRealStorage;
    FDAMPPCG: TRealStorage;
    FHCLOSE: TRealStorage;
    FNPCOND: TPcgMethod;
    FMXITER: integer;
    FITER1: integer;
    FIPRPCG: integer;
    FDAMPPCGT: TRealStorage;
    procedure SetDAMPPCG(const Value: TRealStorage);
    procedure SetHCLOSE(const Value: TRealStorage);
    procedure SetIPRPCG(const Value: integer);
    procedure SetITER1(const Value: integer);
    procedure SetMUTPCG(const Value: TPcgPrintSelection);
    procedure SetMXITER(const Value: integer);
    procedure SetNBPOL(const Value: TPcgEstimateMaxEigenvalue);
    procedure SetNPCOND(const Value: TPcgMethod);
    procedure SetRCLOSE(const Value: TRealStorage);
    procedure SetRELAX(const Value: TRealStorage);
    procedure SetDAMPPCGT(const Value: TRealStorage);
  public
    procedure Assign(Source: TPersistent); override;
    Constructor Create(Model: TBaseModel);
    Destructor Destroy; override;
    procedure InitializeVariables; override;
  published
    property MXITER: integer read FMXITER write SetMXITER default 20;
    property ITER1: integer read FITER1 write SetITER1 default 30;
    property NPCOND: TPcgMethod read FNPCOND write SetNPCOND;
    property HCLOSE: TRealStorage read FHCLOSE write SetHCLOSE;
    property RCLOSE: TRealStorage read FRCLOSE write SetRCLOSE;
    property RELAX: TRealStorage read FRELAX write SetRELAX;
    property NBPOL: TPcgEstimateMaxEigenvalue read FNBPOL write SetNBPOL;
    property IPRPCG: integer read FIPRPCG write SetIPRPCG default 1;
    property MUTPCG: TPcgPrintSelection read FMUTPCG write SetMUTPCG;
    property DAMPPCG: TRealStorage read FDAMPPCG write SetDAMPPCG;
    property DAMPPCGT: TRealStorage read FDAMPPCGT write SetDAMPPCGT;
  end;

  TGmgPackageSelection = class(TModflowPackageSelection)
  private
    FISM: integer;
    FCHGLIMIT: TRealStorage;
    FISC: integer;
    FIADAMP: integer;
    FDUP: TRealStorage;
    FRELAX: TRealStorage;
    FIITER: integer;
    FRCLOSE: TRealStorage;
    FIUNITMHC: Boolean;
    FDLOW: TRealStorage;
    FDAMP: TRealStorage;
    FHCLOSE: TRealStorage;
    FMXITER: integer;
    FIOUTGMG: integer;
    procedure SetCHGLIMIT(const Value: TRealStorage);
    procedure SetDAMP(const Value: TRealStorage);
    procedure SetDLOW(const Value: TRealStorage);
    procedure SetDUP(const Value: TRealStorage);
    procedure SetHCLOSE(const Value: TRealStorage);
    procedure SetIADAMP(const Value: integer);
    procedure SetIITER(const Value: integer);
    procedure SetIOUTGMG(const Value: integer);
    procedure SetISC(const Value: integer);
    procedure SetISM(const Value: integer);
    procedure SetIUNITMHC(const Value: Boolean);
    procedure SetMXITER(const Value: integer);
    procedure SetRCLOSE(const Value: TRealStorage);
    procedure SetRELAX(const Value: TRealStorage);
  public
    procedure Assign(Source: TPersistent); override;
    Constructor Create(Model: TBaseModel);
    Destructor Destroy; override;
    procedure InitializeVariables; override;
  published
    property RCLOSE: TRealStorage read FRCLOSE write SetRCLOSE;
    property IITER: integer read FIITER write SetIITER;
    property HCLOSE: TRealStorage read FHCLOSE write SetHCLOSE;
    property MXITER: integer read FMXITER write SetMXITER;
    property DAMP: TRealStorage read FDAMP write SetDAMP;
    property IADAMP: integer read FIADAMP write SetIADAMP;
    property IOUTGMG: integer read FIOUTGMG write SetIOUTGMG;
    property IUNITMHC: Boolean read FIUNITMHC write SetIUNITMHC;
    property ISM: integer read FISM write SetISM;
    property ISC: integer read FISC write SetISC;
    property DUP: TRealStorage read FDUP write SetDUP;
    property DLOW: TRealStorage read FDLOW write SetDLOW;
    property CHGLIMIT: TRealStorage read FCHGLIMIT write SetCHGLIMIT;
    property RELAX: TRealStorage read FRELAX write SetRELAX;
  end;

  TSIPPackageSelection = class(TModflowPackageSelection)
  private
    FNPARM: integer;
    FIPRSIP: integer;
    FHCLOSE: TRealStorage;
    FIPCALC: integer;
    FMXITER: integer;
    FWSEED: TRealStorage;
    FACCL: TRealStorage;
    procedure SetACCL(const Value: TRealStorage);
    procedure SetHCLOSE(const Value: TRealStorage);
    procedure SetIPCALC(const Value: integer);
    procedure SetIPRSIP(const Value: integer);
    procedure SetMXITER(const Value: integer);
    procedure SetNPARM(const Value: integer);
    procedure SetWSEED(const Value: TRealStorage);
  public
    procedure Assign(Source: TPersistent); override;
    Constructor Create(Model: TBaseModel);
    Destructor Destroy; override;
    procedure InitializeVariables; override;
  published
    property MXITER: integer read FMXITER write SetMXITER;
    property NPARM: integer read FNPARM write SetNPARM;
    property ACCL: TRealStorage read FACCL write SetACCL;
    property HCLOSE: TRealStorage read FHCLOSE write SetHCLOSE;
    property IPCALC: integer read FIPCALC write SetIPCALC;
    property WSEED: TRealStorage read FWSEED write SetWSEED;
    property IPRSIP: integer read FIPRSIP write SetIPRSIP;
  end;

  TDE4PackageSelection = class(TModflowPackageSelection)
  private
    FMUTD4: integer;
    FIFREQ: integer;
    FMXUP: integer;
    FITMX: integer;
    FHCLOSE: TRealStorage;
    FMXBW: integer;
    FIPRD4: integer;
    FMXLOW: integer;
    FACCL: TRealStorage;
    procedure SetACCL(const Value: TRealStorage);
    procedure SetHCLOSE(const Value: TRealStorage);
    procedure SetIFREQ(const Value: integer);
    procedure SetIPRD4(const Value: integer);
    procedure SetITMX(const Value: integer);
    procedure SetMUTD4(const Value: integer);
    procedure SetMXBW(const Value: integer);
    procedure SetMXLOW(const Value: integer);
    procedure SetMXUP(const Value: integer);
  public
    procedure Assign(Source: TPersistent); override;
    Constructor Create(Model: TBaseModel);
    Destructor Destroy; override;
    procedure InitializeVariables; override;
  published
    property ITMX: integer read FITMX write SetITMX;
    property MXUP: integer read FMXUP write SetMXUP;
    property MXLOW: integer read FMXLOW write SetMXLOW;
    property MXBW: integer read FMXBW write SetMXBW;
    property IFREQ: integer read FIFREQ write SetIFREQ;
    property MUTD4: integer read FMUTD4 write SetMUTD4;
    property ACCL: TRealStorage read FACCL write SetACCL;
    property HCLOSE: TRealStorage read FHCLOSE write SetHCLOSE;
    property IPRD4: integer read FIPRD4 write SetIPRD4;
  end;

  TNewtonSolverMethod = (nsmGmres, nsmChiMD);
  TNewtonOption = (noSimple, noModerate, noComplex, noSpecified);
  TNewtonIluMethod = (nimDropTol, nimKOrder);
  TNewtonAccelMethod = (namCongGrad, namOthoMin, namBiCgstab);
  TNewtonOrderingMethod = (nomRCM, nomMinimumOrdering);
  TNewtonApplyReducedPrecondition = (narpDontApply, narpApply);
  TNewtonUseDropTolerance = (nudtDontUse, nudtUse);

  TNwtPackageSelection = class(TModflowPackageSelection)
  private
    FMaxGmresRestarts: integer;
    FStopTolerance: TRealStorage;
    FMomementumCoefficient: TRealStorage;
    FLevel: integer;
    FOrderingMethod: TNewtonOrderingMethod;
    FDropTolerancePreconditioning: TRealStorage;
    FCorrectForCellBottom: integer;
    FFillLimit: integer;
    FOption: TNewtonOption;
    FSolverMethod: TNewtonSolverMethod;
    FMaxBackIterations: integer;
    FDBDKappa: TRealStorage;
    FApplyReducedPrecondition: TNewtonApplyReducedPrecondition;
    FIluMethod: TNewtonIluMethod;
    FInnerHeadClosureCriterion: TRealStorage;
    FDBDGamma: TRealStorage;
    FFluxTolerance: TRealStorage;
    FResidReducConv: TRealStorage;
    FAccelMethod: TNewtonAccelMethod;
    FMaxOuterIterations: integer;
    FMaxIterInner: integer;
    FUseDropTolerance: TNewtonUseDropTolerance;
    FDBDTheta: TRealStorage;
    FHeadTolerance: TRealStorage;
    FFillLevel: integer;
    FPrintFlag: integer;
    FMaxInnerIterations: integer;
    FNumberOfOrthogonalizations: integer;
    FThicknessFactor: TRealStorage;
    FBackReduce: TRealStorage;
    FBackTol: TRealStorage;
    FBackFlag: integer;
    FContinueNWT: Boolean;
    procedure SetRealProperty(Field, NewValue: TRealStorage);
    procedure SetIntegerProperty(var Field: integer; NewValue: integer);
    procedure SetBooleanProperty(var Field: Boolean; NewValue: Boolean);
    procedure SetAccelMethod(const Value: TNewtonAccelMethod);
    procedure SetApplyReducedPrecondition(
      const Value: TNewtonApplyReducedPrecondition);
    procedure SetBackFlag(const Value: integer);
    procedure SetBackReduce(const Value: TRealStorage);
    procedure SetBackTol(const Value: TRealStorage);
    procedure SetCorrectForCellBottom(const Value: integer);
    procedure SetDBDGamma(const Value: TRealStorage);
    procedure SetDBDKappa(const Value: TRealStorage);
    procedure SetDBDTheta(const Value: TRealStorage);
    procedure SetDropTolerancePreconditioning(const Value: TRealStorage);
    procedure SetFillLevel(const Value: integer);
    procedure SetFillLimit(const Value: integer);
    procedure SetFluxTolerance(const Value: TRealStorage);
    procedure SetHeadTolerance(const Value: TRealStorage);
    procedure SetIluMethod(const Value: TNewtonIluMethod);
    procedure SetInnerHeadClosureCriterion(const Value: TRealStorage);
    procedure SetLevel(const Value: integer);
    procedure SetMaxBackIterations(const Value: integer);
    procedure SetMaxGmresRestarts(const Value: integer);
    procedure SetMaxInnerIterations(const Value: integer);
    procedure SetMaxIterInner(const Value: integer);
    procedure SetMaxOuterIterations(const Value: integer);
    procedure SetMomementumCoefficient(const Value: TRealStorage);
    procedure SetNumberOfOrthogonalizations(const Value: integer);
    procedure SetOption(const Value: TNewtonOption);
    procedure SetOrderingMethod(const Value: TNewtonOrderingMethod);
    procedure SetPrintFlag(const Value: integer);
    procedure SetResidReducConv(const Value: TRealStorage);
    procedure SetSolverMethod(const Value: TNewtonSolverMethod);
    procedure SetStopTolerance(const Value: TRealStorage);
    procedure SetThicknessFactor(const Value: TRealStorage);
    procedure SetUseDropTolerance(const Value: TNewtonUseDropTolerance);
    procedure SetContinueNWT(const Value: Boolean);
  public
    procedure Assign(Source: TPersistent); override;
    Constructor Create(Model: TBaseModel);
    Destructor Destroy; override;
    procedure InitializeVariables; override;
  published
    // @name is HEADTOL.
    property HeadTolerance: TRealStorage read FHeadTolerance write SetHeadTolerance;
    // @name is FLUXTOL.
    property FluxTolerance: TRealStorage read FFluxTolerance write SetFluxTolerance;
    // @name is MAXITEROUT.
    property MaxOuterIterations: integer read FMaxOuterIterations write SetMaxOuterIterations stored True;
    // @name is THICKFACT.
    // range = 0 to 1;
    property ThicknessFactor: TRealStorage read FThicknessFactor write SetThicknessFactor;
    // @name is LINMETH.
    property SolverMethod: TNewtonSolverMethod read FSolverMethod write SetSolverMethod stored True;
    // @name is IPRNWT.
    property PrintFlag: integer read FPrintFlag write SetPrintFlag stored True;
    // @name is IBOTAV.
    // Zero or one.
    Property CorrectForCellBottom: integer read FCorrectForCellBottom write SetCorrectForCellBottom stored True;
    // @name is OPTIONS.
    property Option: TNewtonOption read FOption write SetOption stored True;
    property DBDTheta: TRealStorage read FDBDTheta write SetDBDTheta;
    property DBDKappa: TRealStorage read FDBDKappa write SetDBDKappa;
    property DBDGamma: TRealStorage read FDBDGamma write SetDBDGamma;
    // @name is MOMFACT.
    property MomementumCoefficient: TRealStorage read FMomementumCoefficient write SetMomementumCoefficient;
    // Zero or one.
    property BackFlag: integer read FBackFlag write SetBackFlag stored True;
    // @name is MAXBACKITER.
    property MaxBackIterations: integer read FMaxBackIterations write SetMaxBackIterations stored True;
    // @name is BACKTOL.
    // range = 1 to 2;
    property BackTol: TRealStorage read FBackTol write SetBackTol;
    // @name is BACKREDUCE.
    property BackReduce: TRealStorage read FBackReduce write SetBackReduce;
    // @name is MAXITINNER.
    property MaxIterInner: integer read FMaxIterInner write SetMaxIterInner stored True;
    // @name is ILUMETHOD.
    property IluMethod: TNewtonIluMethod read FIluMethod
      write SetIluMethod stored True;
    // @name is LEVFILL is the fill limit for ILUMETHOD = 1
    property FillLimit: integer read FFillLimit write SetFillLimit stored True;
    // @name is LEVFILL is the level of fill for ILUMETHOD = 2
    property FillLevel: integer read FFillLevel write SetFillLevel stored True;
    // @name is STOPTOL.
    property StopTolerance: TRealStorage read FStopTolerance
      write SetStopTolerance;
    // @name is MSDR.
    property MaxGmresRestarts: integer read FMaxGmresRestarts
      write SetMaxGmresRestarts stored True;
    // @name is IACL.
    property AccelMethod: TNewtonAccelMethod read FAccelMethod
      write SetAccelMethod stored True;
    // @name is NORDER.
    property OrderingMethod: TNewtonOrderingMethod read FOrderingMethod
      write SetOrderingMethod stored True;
    // @name is LEVEL.
    property Level: integer read FLevel write SetLevel stored True;
    // @name is NORTH.
    property NumberOfOrthogonalizations: integer
      read FNumberOfOrthogonalizations write SetNumberOfOrthogonalizations
      stored True;
    // @name is IREDSYS
    property ApplyReducedPrecondition: TNewtonApplyReducedPrecondition
      read FApplyReducedPrecondition write SetApplyReducedPrecondition
      stored True;
    // @name is RRCTOLS.
    property ResidReducConv: TRealStorage read FResidReducConv
      write SetResidReducConv;
    // @name is IDROPTOL.
    // IDROPTOL <> 0 means to use the drop tolerance.
    property UseDropTolerance: TNewtonUseDropTolerance read FUseDropTolerance
      write SetUseDropTolerance stored True;
    // @name is EPSRN.
    property DropTolerancePreconditioning: TRealStorage
      read FDropTolerancePreconditioning write SetDropTolerancePreconditioning;
    // @name is HCLOSEXMD.
    property InnerHeadClosureCriterion: TRealStorage
      read FInnerHeadClosureCriterion write SetInnerHeadClosureCriterion;
    // @name is MXITERXMD.
    property MaxInnerIterations: integer read FMaxInnerIterations
      write SetMaxInnerIterations stored True;
    // @name is the GOFAIL OPTION in NWT now renamed CONTINUE.
    property GoFail: Boolean read FContinueNWT write SetContinueNWT stored False;
    // @name is the CONTINUE OPTION in NWT.
    property ContinueNWT: Boolean read FContinueNWT write SetContinueNWT;
  end;

  TLayerOption = (loTop, loSpecified, loTopActive);

  // @name is used for MODFLOW packages in which
  // the user specifies an array of layer numbers
  // to which the package applies.
  TCustomLayerPackageSelection = class(TModflowPackageSelection)
  private
    FLayerOption: TLayerOption;
    FOnLayerChoiceChange: TNotifyEvent;
    procedure SetLayerOption(const Value: TLayerOption);
  public
    Constructor Create(Model: TBaseModel);
    procedure Assign(Source: TPersistent); override;
    property OnLayerChoiceChange: TNotifyEvent read FOnLayerChoiceChange
      write FOnLayerChoiceChange;
  published
    property LayerOption: TLayerOption read FLayerOption
      write SetLayerOption;
  end;

  // @name is used for MODFLOW boundary conditions packages in which,
  // for each stress period, the user specifies an array of layer numbers
  // to which the boundary condition applies.
  TCustomTransientLayerPackageSelection = class(TCustomLayerPackageSelection)
  private
    FTimeVaryingLayers: boolean;
    function GetTimeVaryingLayers: boolean;
    procedure SetTimeVaryingLayers(const Value: boolean);
  protected
    FMultiplierArrayNames: TTransientMultCollection;
    FZoneArrayNames: TTransientZoneCollection;
    procedure UpdateWithElevationFormula(Formula: string;
      ScreenObject: TScreenObject; NewUseList: TStringList);
    procedure SetMultiplierArrayNames(const Value: TTransientMultCollection);
    procedure SetZoneArrayNames(const Value: TTransientZoneCollection);
  public
    procedure Assign(Source: TPersistent); override;
    Constructor Create(Model: TBaseModel);
    destructor Destroy; override;
  published
    property TimeVaryingLayers: boolean read GetTimeVaryingLayers
      write SetTimeVaryingLayers;
    property MultiplierArrayNames: TTransientMultCollection read FMultiplierArrayNames
      write SetMultiplierArrayNames;
    property ZoneArrayNames: TTransientZoneCollection read FZoneArrayNames
      write SetZoneArrayNames;
  end;

  TEvtPackageSelection = class(TCustomTransientLayerPackageSelection)
  private
    FMfEvtEvapDepth: TModflowBoundaryDisplayTimeList;